@<TRIPOS>MOLECULE
/localscratch/kbui/NexusMol/examples/_artifacts/vina_mpro/6W63_aspirin_prepared_scored.pdbqt
 14 14 0 0 0
SMALL
GASTEIGER

@<TRIPOS>ATOM
      1  C        -18.6650   21.4490  -25.3640 C.2     1  UNL1        0.1450
      2  C        -19.8820   21.4340  -24.6740 C.2     1  UNL1        0.0480
      3  C        -20.3140   22.5820  -24.0120 C.2     1  UNL1        0.0040
      4  C        -19.5270   23.7340  -24.0290 C.2     1  UNL1        0.0010
      5  C        -18.3020   23.7400  -24.7050 C.2     1  UNL1        0.0190
      6  C        -17.8520   22.5920  -25.3760 C.2     1  UNL1        0.1020
      7  O        -18.2770   20.2580  -25.9820 O.3     1  UNL1       -0.4260
      8  C        -18.9690   20.0180  -27.1630 C.2     1  UNL1        0.3080
      9  O        -19.2080   20.8290  -28.0480 O.2     1  UNL1       -0.2520
     10  C        -19.4150   18.5860  -27.1830 C.3     1  UNL1        0.1390
     11  C        -16.5380   22.5820  -26.0710 C.2     1  UNL1        0.3390
     12  O        -15.4350   22.6020  -25.5570 O.2     1  UNL1       -0.2460
     13  O        -16.6630   22.5520  -27.4120 O.3     1  UNL1       -0.4780
     14  H        -16.2930   21.6790  -27.6610 H       1  UNL1        0.2970
@<TRIPOS>BOND
     1     9     8    2
     2    14    13    1
     3    13    11    1
     4    10     8    1
     5     8     7    1
     6    11    12    2
     7    11     6    1
     8     7     1    1
     9     6     1    2
    10     6     5    1
    11     1     2    1
    12     5     4    2
    13     2     3    2
    14     4     3    1
