@<TRIPOS>MOLECULE
/localscratch/kbui/NexusMol/examples/_artifacts/vina_mpro/6W63_mol2_prepared_scored.pdbqt
 14 14 0 0 0
SMALL
GASTEIGER

@<TRIPOS>ATOM
      1  C        -21.2530   15.8000  -28.9770 C.2     1  UNL1        0.1230
      2  C        -20.5900   16.0090  -27.7610 C.2     1  UNL1        0.0500
      3  C        -20.8750   15.2220  -26.6310 C.2     1  UNL1       -0.0420
      4  C        -21.8420   14.2150  -26.7420 C.2     1  UNL1        0.0040
      5  C        -22.5070   13.9990  -27.9490 C.2     1  UNL1        0.0070
      6  C        -22.2210   14.7850  -29.0730 C.2     1  UNL1       -0.0090
      7  C        -22.9490   14.5350  -30.3650 C.3     1  UNL1        0.0480
      8  O        -21.0380   16.5180  -30.1250 O.2     1  UNL1       -0.4810
      9  C        -21.3650   17.9050  -30.1100 C.3     1  UNL1        0.3180
     10  C        -22.4120   18.1580  -31.1120 C.1     1  UNL1       -0.0650
     11  C        -23.2670   18.3650  -31.9310 C.1     1  UNL1        0.0070
     12  C        -20.1390   15.4760  -25.3270 C.3     1  UNL1        0.0130
     13  C        -20.7530   14.6830  -24.1710 C.3     1  UNL1        0.0120
     14  C        -20.0810   16.9690  -24.9950 C.3     1  UNL1        0.0120
@<TRIPOS>BOND
     1    11    10    3
     2    10     9    1
     3     7     6    1
     4     8     9    1
     5     8     1    1
     6     6     1    2
     7     6     5    1
     8     1     2    1
     9     5     4    2
    10     2     3    2
    11     4     3    1
    12     3    12    1
    13    12    14    1
    14    12    13    1
