@<TRIPOS>MOLECULE
/localscratch/kbui/NexusMol/examples/_artifacts/vina_mpro/6W63_mol3_prepared_scored.pdbqt
 23 25 0 0 0
SMALL
GASTEIGER

@<TRIPOS>ATOM
      1  O        -21.3090   20.0310  -24.2060 O.2     1  UNL1       -0.4850
      2  C        -20.4710   21.0870  -24.4590 C.2     1  UNL1        0.1230
      3  C        -20.7080   22.2470  -23.7040 C.2     1  UNL1       -0.0090
      4  C        -19.8840   23.3660  -23.8880 C.2     1  UNL1        0.0070
      5  C        -18.8310   23.3310  -24.8030 C.2     1  UNL1        0.0040
      6  C        -19.4040   21.0570  -25.3650 C.2     1  UNL1        0.0500
      7  C        -18.5750   22.1760  -25.5500 C.2     1  UNL1       -0.0420
      8  C        -21.8320   22.3040  -22.7070 C.3     1  UNL1        0.0480
      9  C        -17.4110   22.1520  -26.5270 C.3     1  UNL1        0.0130
     10  C        -16.1370   22.7200  -25.8950 C.3     1  UNL1        0.0120
     11  C        -17.1680   20.7470  -27.0800 C.3     1  UNL1        0.0120
     12  C        -20.7580   18.8550  -23.6070 C.3     1  UNL1        0.3070
     13  C        -21.1390   17.6730  -24.4120 C.2     1  UNL1        0.1740
     14  C        -20.6550   17.0730  -25.5480 C.2     1  UNL1        0.0810
     15  O        -22.2200   16.9780  -23.9760 O.2     1  UNL1       -0.3570
     16  C        -21.5200   15.9710  -25.7850 C.2     1  UNL1        0.1140
     17  N        -22.4600   15.9190  -24.8240 N.2     1  UNL1       -0.0790
     18  C        -21.4720   14.9900  -26.8740 C.2     1  UNL1        0.0040
     19  C        -22.6270   14.2820  -27.2490 C.2     1  UNL1        0.0100
     20  C        -20.2810   14.7340  -27.5700 C.2     1  UNL1        0.0100
     21  C        -22.5900   13.3450  -28.2860 C.2     1  UNL1        0.0010
     22  C        -20.2450   13.7960  -28.6070 C.2     1  UNL1        0.0010
     23  C        -21.3990   13.1020  -28.9630 C.2     1  UNL1        0.0000
@<TRIPOS>BOND
     1    23    22    2
     2    23    21    1
     3    22    20    1
     4    21    19    2
     5    20    18    2
     6    19    18    1
     7    11     9    1
     8    18    16    1
     9     9    10    1
    10     9     7    1
    11    16    14    1
    12    16    17    2
    13     7     6    1
    14     7     5    2
    15    14    13    2
    16     6     2    2
    17    17    15    1
    18     5     4    1
    19     2     1    1
    20     2     3    1
    21    13    15    1
    22    13    12    1
    23     1    12    1
    24     4     3    2
    25     3     8    1
