@<TRIPOS>MOLECULE
/localscratch/kbui/NexusMol/examples/_artifacts/vina_mpro/6W63_mol2_prepared_scored.pdbqt
 14 14 0 0 0
SMALL
GASTEIGER

@<TRIPOS>ATOM
      1  C        -20.6430   16.0060  -29.3780 C.2     1  UNL1        0.1230
      2  C        -21.6150   16.7420  -30.0660 C.2     1  UNL1        0.0500
      3  C        -22.7630   16.1210  -30.5900 C.2     1  UNL1       -0.0420
      4  C        -22.9190   14.7410  -30.4110 C.2     1  UNL1        0.0040
      5  C        -21.9560   14.0000  -29.7270 C.2     1  UNL1        0.0070
      6  C        -20.8130   14.6220  -29.2060 C.2     1  UNL1       -0.0090
      7  C        -19.7880   13.8040  -28.4710 C.3     1  UNL1        0.0480
      8  O        -19.4960   16.5280  -28.8360 O.2     1  UNL1       -0.4810
      9  C        -19.6300   17.6250  -27.9340 C.3     1  UNL1        0.3180
     10  C        -20.2050   17.1360  -26.6730 C.1     1  UNL1       -0.0650
     11  C        -20.6760   16.7370  -25.6420 C.1     1  UNL1        0.0070
     12  C        -23.7980   16.9480  -31.3320 C.3     1  UNL1        0.0130
     13  C        -23.5760   16.9000  -32.8460 C.3     1  UNL1        0.0120
     14  C        -23.8290   18.3940  -30.8310 C.3     1  UNL1        0.0120
@<TRIPOS>BOND
     1    13    12    1
     2    12    14    1
     3    12     3    1
     4     3     4    2
     5     3     2    1
     6     4     5    1
     7     2     1    2
     8     5     6    2
     9     1     6    1
    10     1     8    1
    11     6     7    1
    12     8     9    1
    13     9    10    1
    14    10    11    3
