@<TRIPOS>MOLECULE
/localscratch/kbui/NexusMol/examples/_artifacts/vina_mpro/6W63_aspirin_prepared_scored.pdbqt
 14 14 0 0 0
SMALL
GASTEIGER

@<TRIPOS>ATOM
      1  C        -21.2130   15.4720  -29.6330 C.2     1  UNL1        0.1450
      2  C        -20.5960   14.6990  -28.6430 C.2     1  UNL1        0.0480
      3  C        -21.1060   13.4400  -28.3320 C.2     1  UNL1        0.0040
      4  C        -22.2340   12.9620  -29.0000 C.2     1  UNL1        0.0010
      5  C        -22.8590   13.7450  -29.9760 C.2     1  UNL1        0.0190
      6  C        -22.3590   15.0150  -30.3000 C.2     1  UNL1        0.1020
      7  O        -20.6680   16.7360  -29.8740 O.3     1  UNL1       -0.4260
      8  C        -20.8650   17.6140  -28.8140 C.2     1  UNL1        0.3080
      9  O        -21.9370   17.9240  -28.3110 O.2     1  UNL1       -0.2520
     10  C        -19.5360   18.1590  -28.3830 C.3     1  UNL1        0.1390
     11  C        -23.0350   15.8650  -31.3150 C.2     1  UNL1        0.3390
     12  O        -24.1940   16.2360  -31.3090 O.2     1  UNL1       -0.2460
     13  O        -22.2130   16.2190  -32.3220 O.3     1  UNL1       -0.4780
     14  H        -22.3740   17.1800  -32.4280 H       1  UNL1        0.2970
@<TRIPOS>BOND
     1    14    13    1
     2    13    11    1
     3    11    12    2
     4    11     6    1
     5     6     5    1
     6     6     1    2
     7     5     4    2
     8     7     1    1
     9     7     8    1
    10     1     2    1
    11     4     3    1
    12     8    10    1
    13     8     9    2
    14     2     3    2
