@<TRIPOS>MOLECULE
/localscratch/kbui/NexusMol/examples/_artifacts/vina_mpro/6W63_aspirin_prepared_scored.pdbqt
 14 14 0 0 0
SMALL
GASTEIGER

@<TRIPOS>ATOM
      1  C        -21.3630   15.3340  -22.6990 C.2     1  UNL1        0.1450
      2  C        -22.2110   16.2430  -23.3410 C.2     1  UNL1        0.0480
      3  C        -22.2670   16.2700  -24.7330 C.2     1  UNL1        0.0040
      4  C        -21.4690   15.4020  -25.4780 C.2     1  UNL1        0.0010
      5  C        -20.6080   14.5070  -24.8340 C.2     1  UNL1        0.0190
      6  C        -20.5400   14.4670  -23.4330 C.2     1  UNL1        0.1020
      7  O        -21.3330   15.3790  -21.3030 O.3     1  UNL1       -0.4260
      8  C        -22.3870   14.6810  -20.7230 C.2     1  UNL1        0.3080
      9  O        -22.6500   13.4950  -20.8760 O.2     1  UNL1       -0.2520
     10  C        -23.1910   15.6260  -19.8810 C.3     1  UNL1        0.1390
     11  C        -19.6060   13.5390  -22.7410 C.2     1  UNL1        0.3390
     12  O        -18.4030   13.6670  -22.6160 O.2     1  UNL1       -0.2460
     13  O        -20.2340   12.4630  -22.2280 O.3     1  UNL1       -0.4780
     14  H        -21.1650   12.7560  -22.1420 H       1  UNL1        0.2970
@<TRIPOS>BOND
     1     4     5    2
     2     4     3    1
     3     5     6    1
     4     3     2    2
     5     6    11    1
     6     6     1    2
     7     2     1    1
     8    11    12    2
     9    11    13    1
    10     1     7    1
    11    13    14    1
    12     7     8    1
    13     9     8    2
    14     8    10    1
