@<TRIPOS>MOLECULE
/localscratch/kbui/NexusMol/examples/_artifacts/vina_mpro/6W63_mol2_prepared_scored.pdbqt
 14 14 0 0 0
SMALL
GASTEIGER

@<TRIPOS>ATOM
      1  C        -22.0630   17.1180  -30.4940 C.2     1  UNL1        0.1230
      2  C        -21.1740   16.6350  -29.5260 C.2     1  UNL1        0.0500
      3  C        -21.1560   15.2750  -29.1670 C.2     1  UNL1       -0.0420
      4  C        -22.0510   14.4030  -29.7990 C.2     1  UNL1        0.0040
      5  C        -22.9400   14.8750  -30.7640 C.2     1  UNL1        0.0070
      6  C        -22.9550   16.2310  -31.1200 C.2     1  UNL1       -0.0090
      7  C        -23.9210   16.7180  -32.1640 C.3     1  UNL1        0.0480
      8  O        -22.1480   18.4240  -30.9040 O.2     1  UNL1       -0.4810
      9  C        -21.0270   19.2700  -30.6590 C.3     1  UNL1        0.3180
     10  C        -20.6320   19.9130  -31.9210 C.1     1  UNL1       -0.0650
     11  C        -20.3090   20.4390  -32.9530 C.1     1  UNL1        0.0070
     12  C        -20.1800   14.7850  -28.1120 C.3     1  UNL1        0.0130
     13  C        -19.1830   13.7780  -28.6930 C.3     1  UNL1        0.0120
     14  C        -20.9070   14.1950  -26.9010 C.3     1  UNL1        0.0120
@<TRIPOS>BOND
     1    11    10    3
     2     7     6    1
     3    10     9    1
     4     6     5    1
     5     6     1    2
     6     8     9    1
     7     8     1    1
     8     5     4    2
     9     1     2    1
    10     4     3    1
    11     2     3    2
    12     3    12    1
    13    13    12    1
    14    12    14    1
