@<TRIPOS>MOLECULE
/localscratch/kbui/NexusMol/examples/_artifacts/vina_mpro/6W63_mol2_prepared_scored.pdbqt
 14 14 0 0 0
SMALL
GASTEIGER

@<TRIPOS>ATOM
      1  C        -21.1550   14.4000  -28.8920 C.2     1  UNL1        0.1230
      2  C        -20.8220   15.7460  -29.0910 C.2     1  UNL1        0.0500
      3  C        -21.5500   16.5510  -29.9850 C.2     1  UNL1       -0.0420
      4  C        -22.6230   15.9800  -30.6800 C.2     1  UNL1        0.0040
      5  C        -22.9620   14.6410  -30.4880 C.2     1  UNL1        0.0070
      6  C        -22.2350   13.8410  -29.5960 C.2     1  UNL1       -0.0090
      7  C        -22.6180   12.4000  -29.4030 C.3     1  UNL1        0.0480
      8  O        -20.5020   13.5450  -28.0420 O.2     1  UNL1       -0.4810
      9  C        -19.9700   14.0870  -26.8360 C.3     1  UNL1        0.3180
     10  C        -21.0760   14.6120  -26.0220 C.1     1  UNL1       -0.0650
     11  C        -21.9800   15.0410  -25.3570 C.1     1  UNL1        0.0070
     12  C        -21.1630   18.0070  -30.1780 C.3     1  UNL1        0.0130
     13  C        -21.4240   18.8320  -28.9150 C.3     1  UNL1        0.0120
     14  C        -21.8700   18.6220  -31.3880 C.3     1  UNL1        0.0120
@<TRIPOS>BOND
     1    14    12    1
     2     4     5    2
     3     4     3    1
     4     5     6    1
     5    12     3    1
     6    12    13    1
     7     3     2    2
     8     6     7    1
     9     6     1    2
    10     2     1    1
    11     1     8    1
    12     8     9    1
    13     9    10    1
    14    10    11    3
