@<TRIPOS>MOLECULE
/localscratch/kbui/NexusMol/examples/_artifacts/vina_mpro/6W63_mol4_prepared_scored.pdbqt
 24 26 0 0 0
SMALL
GASTEIGER

@<TRIPOS>ATOM
      1  C        -19.6160   16.4970  -28.4680 C.3     1  UNL1        0.3070
      2  C        -19.4700   17.6010  -27.4910 C.2     1  UNL1        0.1740
      3  C        -19.2210   19.4090  -26.2250 C.2     1  UNL1        0.1140
      4  C        -19.2520   18.9550  -27.5720 C.2     1  UNL1        0.0810
      5  N        -19.4140   18.3690  -25.3930 N.2     1  UNL1       -0.0790
      6  O        -19.5670   17.2510  -26.1840 O.2     1  UNL1       -0.3570
      7  C        -19.0190   20.7740  -25.7230 C.2     1  UNL1        0.0040
      8  C        -18.6490   23.4070  -24.7520 C.2     1  UNL1       -0.0510
      9  C        -19.6480   22.5870  -24.2190 C.2     1  UNL1        0.0040
     10  C        -17.8230   22.8970  -25.7570 C.2     1  UNL1        0.0040
     11  C        -19.8330   21.2880  -24.7030 C.2     1  UNL1        0.0110
     12  C        -18.0090   21.5970  -26.2420 C.2     1  UNL1        0.0110
     13  C        -18.4280   24.7870  -24.2110 C.3     1  UNL1        0.0440
     14  O        -21.0110   16.2370  -28.6100 O.2     1  UNL1       -0.4850
     15  C        -21.6150   16.6280  -29.7770 C.2     1  UNL1        0.1230
     16  C        -21.5670   17.9220  -30.3110 C.2     1  UNL1        0.0500
     17  C        -22.3230   15.6230  -30.4560 C.2     1  UNL1       -0.0090
     18  C        -22.2170   18.2350  -31.5170 C.2     1  UNL1       -0.0420
     19  C        -22.9710   15.9310  -31.6590 C.2     1  UNL1        0.0070
     20  C        -22.9190   17.2230  -32.1830 C.2     1  UNL1        0.0040
     21  C        -22.3920   14.2230  -29.9100 C.3     1  UNL1        0.0480
     22  C        -22.1470   19.6490  -32.0690 C.3     1  UNL1        0.0130
     23  C        -22.8440   20.6500  -31.1440 C.3     1  UNL1        0.0120
     24  C        -20.7030   20.0750  -32.3450 C.3     1  UNL1        0.0120
@<TRIPOS>BOND
     1    24    22    1
     2    20    19    2
     3    20    18    1
     4    22    18    1
     5    22    23    1
     6    19    17    1
     7    18    16    2
     8    17    21    1
     9    17    15    2
    10    16    15    1
    11    15    14    1
    12    14     1    1
    13     1     2    1
    14     4     2    2
    15     4     3    1
    16     2     6    1
    17    12    10    1
    18    12     7    2
    19     3     7    1
    20     3     5    2
    21     6     5    1
    22    10     8    2
    23     7    11    1
    24     8     9    1
    25     8    13    1
    26    11     9    2
