@<TRIPOS>MOLECULE
/localscratch/kbui/NexusMol/examples/_artifacts/vina_mpro/6W63_mol1_prepared_scored.pdbqt
 12 12 0 0 0
SMALL
GASTEIGER

@<TRIPOS>ATOM
      1  C        -22.3440   18.7880  -31.5980 C.3     1  UNL1        0.0480
      2  C        -22.1150   17.4400  -30.9800 C.2     1  UNL1       -0.0090
      3  C        -21.2690   17.3260  -29.8680 C.2     1  UNL1        0.0070
      4  C        -21.0340   16.0840  -29.2680 C.2     1  UNL1        0.0040
      5  C        -21.6370   14.9220  -29.7640 C.2     1  UNL1       -0.0420
      6  C        -22.4830   15.0360  -30.8760 C.2     1  UNL1        0.0500
      7  C        -22.7150   16.2760  -31.4720 C.2     1  UNL1        0.1180
      8  O        -23.5550   16.2740  -32.5500 O.2     1  UNL1       -0.5080
      9  H        -23.0310   16.3390  -33.3630 H       1  UNL1        0.2930
     10  C        -21.3680   13.5850  -29.0990 C.3     1  UNL1        0.0130
     11  C        -21.0750   13.7490  -27.6060 C.3     1  UNL1        0.0120
     12  C        -22.5200   12.6020  -29.3240 C.3     1  UNL1        0.0120
@<TRIPOS>BOND
     1     9     8    1
     2     8     7    1
     3     1     2    1
     4     7     2    2
     5     7     6    1
     6     2     3    1
     7     6     5    2
     8     3     4    2
     9     5     4    1
    10     5    10    1
    11    12    10    1
    12    10    11    1
