@<TRIPOS>MOLECULE
/localscratch/kbui/NexusMol/examples/_artifacts/vina_mpro/6W63_mol3_prepared_scored.pdbqt
 23 25 0 0 0
SMALL
GASTEIGER

@<TRIPOS>ATOM
      1  O        -21.4710   14.6530  -29.8230 O.2     1  UNL1       -0.4850
      2  C        -21.8530   15.9040  -30.2380 C.2     1  UNL1        0.1230
      3  C        -21.0630   16.9670  -29.7700 C.2     1  UNL1       -0.0090
      4  C        -21.3740   18.2770  -30.1610 C.2     1  UNL1        0.0070
      5  C        -22.4480   18.5270  -31.0160 C.2     1  UNL1        0.0040
      6  C        -22.9200   16.1630  -31.1050 C.2     1  UNL1        0.0500
      7  C        -23.2320   17.4750  -31.5020 C.2     1  UNL1       -0.0420
      8  C        -19.8970   16.7200  -28.8540 C.3     1  UNL1        0.0480
      9  C        -24.3850   17.7670  -32.4470 C.3     1  UNL1        0.0130
     10  C        -25.5340   16.7720  -32.2560 C.3     1  UNL1        0.0120
     11  C        -24.8810   19.2070  -32.3040 C.3     1  UNL1        0.0120
     12  C        -22.3310   13.9450  -28.9250 C.3     1  UNL1        0.3070
     13  C        -21.8650   14.1550  -27.5360 C.2     1  UNL1        0.1740
     14  C        -22.3880   14.7490  -26.4140 C.2     1  UNL1        0.0810
     15  O        -20.6320   13.6720  -27.2410 O.2     1  UNL1       -0.3570
     16  C        -21.3870   14.6080  -25.4160 C.2     1  UNL1        0.1140
     17  N        -20.3310   13.9490  -25.9250 N.2     1  UNL1       -0.0790
     18  C        -21.4120   15.0700  -24.0240 C.2     1  UNL1        0.0040
     19  C        -20.6660   14.4050  -23.0360 C.2     1  UNL1        0.0100
     20  C        -22.1750   16.1850  -23.6430 C.2     1  UNL1        0.0100
     21  C        -20.6860   14.8400  -21.7080 C.2     1  UNL1        0.0010
     22  C        -22.1940   16.6190  -22.3140 C.2     1  UNL1        0.0010
     23  C        -21.4510   15.9460  -21.3470 C.2     1  UNL1        0.0000
@<TRIPOS>BOND
     1     9    11    1
     2     9    10    1
     3     9     7    1
     4     7     6    1
     5     7     5    2
     6     6     2    2
     7     5     4    1
     8     2     1    1
     9     2     3    1
    10     4     3    2
    11     1    12    1
    12     3     8    1
    13    12    13    1
    14    13    15    1
    15    13    14    2
    16    15    17    1
    17    14    16    1
    18    17    16    2
    19    16    18    1
    20    18    20    2
    21    18    19    1
    22    20    22    1
    23    19    21    2
    24    22    23    2
    25    21    23    1
