@<TRIPOS>MOLECULE
/localscratch/kbui/NexusMol/examples/_artifacts/vina_mpro/6W63_mol1_prepared_scored.pdbqt
 12 12 0 0 0
SMALL
GASTEIGER

@<TRIPOS>ATOM
      1  C        -22.8280   13.0810  -29.7210 C.3     1  UNL1        0.0480
      2  C        -22.0840   13.5770  -28.5140 C.2     1  UNL1       -0.0090
      3  C        -22.8010   14.1280  -27.4430 C.2     1  UNL1        0.0070
      4  C        -22.1400   14.5990  -26.3030 C.2     1  UNL1        0.0040
      5  C        -20.7450   14.5330  -26.2040 C.2     1  UNL1       -0.0420
      6  C        -20.0290   13.9830  -27.2760 C.2     1  UNL1        0.0500
      7  C        -20.6910   13.5130  -28.4110 C.2     1  UNL1        0.1180
      8  O        -19.8980   12.9970  -29.3970 O.2     1  UNL1       -0.5080
      9  H        -20.4000   12.9590  -30.2250 H       1  UNL1        0.2930
     10  C        -20.0470   15.0510  -24.9600 C.3     1  UNL1        0.0130
     11  C        -20.1080   16.5780  -24.8760 C.3     1  UNL1        0.0120
     12  C        -20.6140   14.4120  -23.6900 C.3     1  UNL1        0.0120
@<TRIPOS>BOND
     1     9     8    1
     2     1     2    1
     3     8     7    1
     4     2     7    2
     5     2     3    1
     6     7     6    1
     7     3     4    2
     8     6     5    2
     9     4     5    1
    10     5    10    1
    11    10    11    1
    12    10    12    1
