@<TRIPOS>MOLECULE
/localscratch/kbui/NexusMol/examples/_artifacts/vina_mpro/6W63_mol3_prepared_scored.pdbqt
 23 25 0 0 0
SMALL
GASTEIGER

@<TRIPOS>ATOM
      1  O        -21.5860   16.4850  -28.4760 O.2     1  UNL1       -0.4850
      2  C        -21.9310   16.9070  -29.7350 C.2     1  UNL1        0.1230
      3  C        -22.5390   15.9420  -30.5550 C.2     1  UNL1       -0.0090
      4  C        -22.9380   16.2960  -31.8510 C.2     1  UNL1        0.0070
      5  C        -22.7480   17.5950  -32.3240 C.2     1  UNL1        0.0040
      6  C        -21.7560   18.2110  -30.2140 C.2     1  UNL1        0.0500
      7  C        -22.1590   18.5700  -31.5120 C.2     1  UNL1       -0.0420
      8  C        -22.7600   14.5390  -30.0630 C.3     1  UNL1        0.0480
      9  C        -21.9780   19.9830  -32.0390 C.3     1  UNL1        0.0130
     10  C        -22.3860   21.0270  -30.9960 C.3     1  UNL1        0.0120
     11  C        -20.5470   20.2260  -32.5240 C.3     1  UNL1        0.0120
     12  C        -20.1980   16.3140  -28.1750 C.3     1  UNL1        0.3070
     13  C        -19.7260   17.4690  -27.3790 C.2     1  UNL1        0.1740
     14  C        -19.1640   18.6870  -27.6710 C.2     1  UNL1        0.0810
     15  O        -19.8460   17.3540  -26.0320 O.2     1  UNL1       -0.3570
     16  C        -18.9380   19.3050  -26.4120 C.2     1  UNL1        0.1140
     17  N        -19.3590   18.4920  -25.4270 N.2     1  UNL1       -0.0790
     18  C        -18.3470   20.6180  -26.1320 C.2     1  UNL1        0.0040
     19  C        -19.0100   21.5380  -25.3020 C.2     1  UNL1        0.0100
     20  C        -17.1090   20.9890  -26.6780 C.2     1  UNL1        0.0100
     21  C        -18.4540   22.7910  -25.0310 C.2     1  UNL1        0.0010
     22  C        -16.5530   22.2430  -26.4060 C.2     1  UNL1        0.0010
     23  C        -17.2260   23.1430  -25.5840 C.2     1  UNL1        0.0000
@<TRIPOS>BOND
     1    11     9    1
     2     5     4    2
     3     5     7    1
     4     9     7    1
     5     9    10    1
     6     4     3    1
     7     7     6    2
     8     3     8    1
     9     3     2    2
    10     6     2    1
    11     2     1    1
    12     1    12    1
    13    12    13    1
    14    14    13    2
    15    14    16    1
    16    13    15    1
    17    20    22    1
    18    20    18    2
    19    16    18    1
    20    16    17    2
    21    22    23    2
    22    18    19    1
    23    15    17    1
    24    23    21    1
    25    19    21    2
