@<TRIPOS>MOLECULE
/localscratch/kbui/NexusMol/examples/_artifacts/vina_mpro/6W63_mol1_prepared_scored.pdbqt
 12 12 0 0 0
SMALL
GASTEIGER

@<TRIPOS>ATOM
      1  C        -19.5340   13.7530  -28.3240 C.3     1  UNL1        0.0480
      2  C        -20.5810   14.4900  -29.1080 C.2     1  UNL1       -0.0090
      3  C        -20.5450   15.8900  -29.1560 C.2     1  UNL1        0.0070
      4  C        -21.5050   16.6090  -29.8770 C.2     1  UNL1        0.0040
      5  C        -22.5270   15.9470  -30.5680 C.2     1  UNL1       -0.0420
      6  C        -22.5630   14.5470  -30.5190 C.2     1  UNL1        0.0500
      7  C        -21.6030   13.8330  -29.7990 C.2     1  UNL1        0.1180
      8  O        -21.7310   12.4730  -29.8170 O.2     1  UNL1       -0.5080
      9  H        -21.2250   12.0940  -29.0820 H       1  UNL1        0.2930
     10  C        -23.5590   16.7450  -31.3440 C.3     1  UNL1        0.0130
     11  C        -23.7180   18.1580  -30.7770 C.3     1  UNL1        0.0120
     12  C        -23.2290   16.7900  -32.8380 C.3     1  UNL1        0.0120
@<TRIPOS>BOND
     1    12    10    1
     2    10    11    1
     3    10     5    1
     4     5     6    2
     5     5     4    1
     6     6     7    1
     7     4     3    2
     8     8     7    1
     9     8     9    1
    10     7     2    2
    11     3     2    1
    12     2     1    1
