@<TRIPOS>MOLECULE
/localscratch/kbui/NexusMol/examples/_artifacts/vina_mpro/6W63_mol3_prepared_scored.pdbqt
 23 25 0 0 0
SMALL
GASTEIGER

@<TRIPOS>ATOM
      1  O        -20.2810   18.4010  -29.1200 O.2     1  UNL1       -0.4850
      2  C        -20.9640   17.2950  -29.5560 C.2     1  UNL1        0.1230
      3  C        -21.9260   17.5280  -30.5530 C.2     1  UNL1       -0.0090
      4  C        -22.6570   16.4480  -31.0670 C.2     1  UNL1        0.0070
      5  C        -22.4280   15.1510  -30.6060 C.2     1  UNL1        0.0040
      6  C        -20.7330   15.9890  -29.1090 C.2     1  UNL1        0.0500
      7  C        -21.4620   14.9030  -29.6250 C.2     1  UNL1       -0.0420
      8  C        -22.1840   18.9160  -31.0690 C.3     1  UNL1        0.0480
      9  C        -21.2150   13.4820  -29.1510 C.3     1  UNL1        0.0130
     10  C        -20.6690   13.4540  -27.7200 C.3     1  UNL1        0.0120
     11  C        -22.4730   12.6200  -29.2720 C.3     1  UNL1        0.0120
     12  C        -19.1110   18.2050  -28.3200 C.3     1  UNL1        0.3070
     13  C        -19.1290   19.1560  -27.1870 C.2     1  UNL1        0.1740
     14  C        -19.2230   20.5210  -27.0630 C.2     1  UNL1        0.0810
     15  O        -19.0290   18.6100  -25.9490 O.2     1  UNL1       -0.3570
     16  C        -19.1600   20.7740  -25.6670 C.2     1  UNL1        0.1140
     17  N        -19.0480   19.6100  -25.0010 N.2     1  UNL1       -0.0790
     18  C        -19.2050   22.0630  -24.9690 C.2     1  UNL1        0.0040
     19  C        -20.2320   22.3440  -24.0530 C.2     1  UNL1        0.0100
     20  C        -18.2280   23.0440  -25.1930 C.2     1  UNL1        0.0100
     21  C        -20.2820   23.5710  -23.3840 C.2     1  UNL1        0.0010
     22  C        -18.2780   24.2710  -24.5250 C.2     1  UNL1        0.0010
     23  C        -19.3060   24.5340  -23.6220 C.2     1  UNL1        0.0000
@<TRIPOS>BOND
     1     8     3    1
     2     4     5    2
     3     4     3    1
     4     5     7    1
     5     3     2    2
     6     7     9    1
     7     7     6    2
     8     2     1    1
     9     2     6    1
    10    11     9    1
    11     9    10    1
    12     1    12    1
    13    12    13    1
    14    13    14    2
    15    13    15    1
    16    14    16    1
    17    15    17    1
    18    16    17    2
    19    16    18    1
    20    20    18    2
    21    20    22    1
    22    18    19    1
    23    22    23    2
    24    19    21    2
    25    23    21    1
