@<TRIPOS>MOLECULE
/localscratch/kbui/NexusMol/examples/_artifacts/vina_mpro/6W63_mol2_prepared_scored.pdbqt
 14 14 0 0 0
SMALL
GASTEIGER

@<TRIPOS>ATOM
      1  C        -20.0270   17.4760  -29.0180 C.2     1  UNL1        0.1230
      2  C        -19.9740   16.1150  -28.6940 C.2     1  UNL1        0.0500
      3  C        -20.9070   15.2040  -29.2220 C.2     1  UNL1       -0.0420
      4  C        -21.9000   15.6850  -30.0840 C.2     1  UNL1        0.0040
      5  C        -21.9600   17.0390  -30.4120 C.2     1  UNL1        0.0070
      6  C        -21.0290   17.9450  -29.8850 C.2     1  UNL1       -0.0090
      7  C        -21.1130   19.4000  -30.2530 C.3     1  UNL1        0.0480
      8  O        -19.1610   18.4320  -28.5510 O.2     1  UNL1       -0.4810
      9  C        -19.2230   18.7620  -27.1660 C.3     1  UNL1        0.3180
     10  C        -18.3810   19.9410  -26.9200 C.1     1  UNL1       -0.0650
     11  C        -17.6920   20.9050  -26.7180 C.1     1  UNL1        0.0070
     12  C        -20.8220   13.7340  -28.8500 C.3     1  UNL1        0.0130
     13  C        -22.1920   13.0560  -28.9200 C.3     1  UNL1        0.0120
     14  C        -20.1850   13.5380  -27.4720 C.3     1  UNL1        0.0120
@<TRIPOS>BOND
     1     5     4    2
     2     5     6    1
     3     7     6    1
     4     4     3    1
     5     6     1    2
     6     3    12    1
     7     3     2    2
     8     1     2    1
     9     1     8    1
    10    13    12    1
    11    12    14    1
    12     8     9    1
    13     9    10    1
    14    10    11    3
