@<TRIPOS>MOLECULE
/localscratch/kbui/NexusMol/examples/_artifacts/vina_mpro/6W63_mol1_prepared_scored.pdbqt
 12 12 0 0 0
SMALL
GASTEIGER

@<TRIPOS>ATOM
      1  C        -17.6740   23.8340  -24.8510 C.3     1  UNL1        0.0480
      2  C        -18.0240   22.5080  -25.4610 C.2     1  UNL1       -0.0090
      3  C        -19.1520   21.8140  -25.0000 C.2     1  UNL1        0.0070
      4  C        -19.5070   20.5760  -25.5460 C.2     1  UNL1        0.0040
      5  C        -18.7430   19.9970  -26.5670 C.2     1  UNL1       -0.0420
      6  C        -17.6150   20.6900  -27.0270 C.2     1  UNL1        0.0500
      7  C        -17.2640   21.9250  -26.4810 C.2     1  UNL1        0.1180
      8  O        -16.1470   22.5150  -27.0020 O.2     1  UNL1       -0.5080
      9  H        -15.6220   21.8470  -27.4700 H       1  UNL1        0.2930
     10  C        -19.1440   18.6520  -27.1450 C.3     1  UNL1        0.0130
     11  C        -19.9010   17.8040  -26.1200 C.3     1  UNL1        0.0120
     12  C        -19.9610   18.8130  -28.4290 C.3     1  UNL1        0.0120
@<TRIPOS>BOND
     1    12    10    1
     2     9     8    1
     3    10     5    1
     4    10    11    1
     5     6     5    2
     6     6     7    1
     7     8     7    1
     8     5     4    1
     9     7     2    2
    10     4     3    2
    11     2     3    1
    12     2     1    1
