@<TRIPOS>MOLECULE
/localscratch/kbui/NexusMol/examples/_artifacts/vina_mpro/6W63_aspirin_prepared_scored.pdbqt
 14 14 0 0 0
SMALL
GASTEIGER

@<TRIPOS>ATOM
      1  C        -20.8790   14.6740  -28.0430 C.2     1  UNL1        0.1450
      2  C        -21.6350   13.5000  -27.9640 C.2     1  UNL1        0.0480
      3  C        -22.5400   13.1920  -28.9780 C.2     1  UNL1        0.0040
      4  C        -22.6960   14.0600  -30.0590 C.2     1  UNL1        0.0010
      5  C        -21.9520   15.2430  -30.1260 C.2     1  UNL1        0.0190
      6  C        -21.0360   15.5680  -29.1120 C.2     1  UNL1        0.1020
      7  O        -20.0120   14.9370  -26.9790 O.3     1  UNL1       -0.4260
      8  C        -20.6800   15.3730  -25.8400 C.2     1  UNL1        0.3080
      9  O        -21.4150   16.3470  -25.7520 O.2     1  UNL1       -0.2520
     10  C        -20.3380   14.4620  -24.6990 C.3     1  UNL1        0.1390
     11  C        -20.2640   16.8370  -29.1620 C.2     1  UNL1        0.3390
     12  O        -20.6880   17.9460  -29.4260 O.2     1  UNL1       -0.2460
     13  O        -18.9590   16.6580  -28.8750 O.3     1  UNL1       -0.4780
     14  H        -18.5000   17.2730  -29.4840 H       1  UNL1        0.2970
@<TRIPOS>BOND
     1     5     4    2
     2     5     6    1
     3     4     3    1
     4    14    13    1
     5    12    11    2
     6    11     6    1
     7    11    13    1
     8     6     1    2
     9     3     2    2
    10     1     2    1
    11     1     7    1
    12     7     8    1
    13     8     9    2
    14     8    10    1
