@<TRIPOS>MOLECULE
/localscratch/kbui/NexusMol/examples/_artifacts/vina_mpro/6W63_mol4_prepared_scored.pdbqt
 24 26 0 0 0
SMALL
GASTEIGER

@<TRIPOS>ATOM
      1  C        -22.3510   15.2400  -30.9580 C.3     1  UNL1        0.3070
      2  C        -22.2670   14.9440  -29.5090 C.2     1  UNL1        0.1740
      3  C        -22.0200   14.7200  -27.3130 C.2     1  UNL1        0.1140
      4  C        -21.7450   15.5820  -28.4100 C.2     1  UNL1        0.0810
      5  N        -22.6740   13.6280  -27.7490 N.2     1  UNL1       -0.0790
      6  O        -22.8240   13.7720  -29.1110 O.2     1  UNL1       -0.3570
      7  C        -21.6850   14.9060  -25.8960 C.2     1  UNL1        0.0040
      8  C        -21.0350   15.2460  -23.1620 C.2     1  UNL1       -0.0510
      9  C        -20.2770   14.3960  -23.9710 C.2     1  UNL1        0.0040
     10  C        -22.1060   15.9410  -23.7290 C.2     1  UNL1        0.0040
     11  C        -20.6020   14.2250  -25.3210 C.2     1  UNL1        0.0110
     12  C        -22.4320   15.7690  -25.0800 C.2     1  UNL1        0.0110
     13  C        -20.6660   15.4560  -21.7230 C.3     1  UNL1        0.0440
     14  O        -23.5500   15.9810  -31.1710 O.2     1  UNL1       -0.4850
     15  C        -23.4300   17.3220  -31.4320 C.2     1  UNL1        0.1230
     16  C        -22.2470   18.0610  -31.3070 C.2     1  UNL1        0.0500
     17  C        -24.6070   17.9610  -31.8560 C.2     1  UNL1       -0.0090
     18  C        -22.2150   19.4360  -31.5980 C.2     1  UNL1       -0.0420
     19  C        -24.5780   19.3320  -32.1460 C.2     1  UNL1        0.0070
     20  C        -23.3950   20.0610  -32.0190 C.2     1  UNL1        0.0040
     21  C        -25.8930   17.1960  -32.0020 C.3     1  UNL1        0.0480
     22  C        -20.9150   20.2100  -31.4510 C.3     1  UNL1        0.0130
     23  C        -20.2730   20.4950  -32.8110 C.3     1  UNL1        0.0120
     24  C        -21.1170   21.5050  -30.6600 C.3     1  UNL1        0.0120
@<TRIPOS>BOND
     1    23    22    1
     2    19    20    2
     3    19    17    1
     4    20    18    1
     5    21    17    1
     6    17    15    2
     7    18    22    1
     8    18    16    2
     9    22    24    1
    10    15    16    1
    11    15    14    1
    12    14     1    1
    13     1     2    1
    14     2     6    1
    15     2     4    2
    16     6     5    1
    17     4     3    1
    18     5     3    2
    19     3     7    1
    20     7    11    2
    21     7    12    1
    22    11     9    1
    23    12    10    2
    24     9     8    2
    25    10     8    1
    26     8    13    1
