@<TRIPOS>MOLECULE
/localscratch/kbui/NexusMol/examples/_artifacts/vina_mpro/6W63_mol1_prepared_scored.pdbqt
 12 12 0 0 0
SMALL
GASTEIGER

@<TRIPOS>ATOM
      1  C        -22.5250   12.4600  -29.3730 C.3     1  UNL1        0.0480
      2  C        -21.9050   13.8260  -29.3620 C.2     1  UNL1       -0.0090
      3  C        -22.4570   14.8400  -30.1580 C.2     1  UNL1        0.0070
      4  C        -21.9050   16.1250  -30.1720 C.2     1  UNL1        0.0040
      5  C        -20.7840   16.4320  -29.3900 C.2     1  UNL1       -0.0420
      6  C        -20.2320   15.4180  -28.5950 C.2     1  UNL1        0.0500
      7  C        -20.7860   14.1380  -28.5830 C.2     1  UNL1        0.1180
      8  O        -20.1690   13.2260  -27.7730 O.2     1  UNL1       -0.5080
      9  H        -19.8450   12.4880  -28.3110 H       1  UNL1        0.2930
     10  C        -20.1990   17.8320  -29.4200 C.3     1  UNL1        0.0130
     11  C        -21.2850   18.8890  -29.6310 C.3     1  UNL1        0.0120
     12  C        -19.3860   18.1290  -28.1580 C.3     1  UNL1        0.0120
@<TRIPOS>BOND
     1     4     3    1
     2     4     5    2
     3     3     2    2
     4    11    10    1
     5    10     5    1
     6    10    12    1
     7     5     6    1
     8     1     2    1
     9     2     7    1
    10     6     7    2
    11     7     8    1
    12     9     8    1
