@<TRIPOS>MOLECULE
/localscratch/kbui/NexusMol/examples/_artifacts/vina_mpro/6W63_mol1_prepared_scored.pdbqt
 12 12 0 0 0
SMALL
GASTEIGER

@<TRIPOS>ATOM
      1  C        -20.1380   15.2300  -24.0770 C.3     1  UNL1        0.0480
      2  C        -20.8510   14.8800  -25.3500 C.2     1  UNL1       -0.0090
      3  C        -20.2150   14.0600  -26.2930 C.2     1  UNL1        0.0070
      4  C        -20.8510   13.7140  -27.4890 C.2     1  UNL1        0.0040
      5  C        -22.1400   14.1790  -27.7770 C.2     1  UNL1       -0.0420
      6  C        -22.7750   14.9990  -26.8350 C.2     1  UNL1        0.0500
      7  C        -22.1380   15.3420  -25.6420 C.2     1  UNL1        0.1180
      8  O        -22.8470   16.1460  -24.7950 O.2     1  UNL1       -0.5080
      9  H        -23.7400   16.2780  -25.1500 H       1  UNL1        0.2930
     10  C        -22.8120   13.7920  -29.0820 C.3     1  UNL1        0.0130
     11  C        -22.3580   14.6900  -30.2350 C.3     1  UNL1        0.0120
     12  C        -22.5830   12.3170  -29.4170 C.3     1  UNL1        0.0120
@<TRIPOS>BOND
     1    11    10    1
     2    12    10    1
     3    10     5    1
     4     5     4    2
     5     5     6    1
     6     4     3    1
     7     6     7    2
     8     3     2    2
     9     7     2    1
    10     7     8    1
    11     2     1    1
    12     9     8    1
