@<TRIPOS>MOLECULE
/localscratch/kbui/NexusMol/examples/_artifacts/vina_mpro/6W63_mol2_prepared_scored.pdbqt
 14 14 0 0 0
SMALL
GASTEIGER

@<TRIPOS>ATOM
      1  C        -20.8480   15.0030  -25.0440 C.2     1  UNL1        0.1230
      2  C        -20.6890   14.1700  -26.1580 C.2     1  UNL1        0.0500
      3  C        -21.6420   14.1470  -27.1920 C.2     1  UNL1       -0.0420
      4  C        -22.7650   14.9780  -27.0860 C.2     1  UNL1        0.0040
      5  C        -22.9320   15.8100  -25.9800 C.2     1  UNL1        0.0070
      6  C        -21.9790   15.8310  -24.9520 C.2     1  UNL1       -0.0090
      7  C        -22.1780   16.7360  -23.7680 C.3     1  UNL1        0.0480
      8  O        -19.9700   15.0890  -23.9930 O.2     1  UNL1       -0.4810
      9  C        -19.7730   13.9230  -23.1970 C.3     1  UNL1        0.3180
     10  C        -20.7820   13.9000  -22.1290 C.1     1  UNL1       -0.0650
     11  C        -21.6070   13.8810  -21.2550 C.1     1  UNL1        0.0070
     12  C        -21.4400   13.2320  -28.3870 C.3     1  UNL1        0.0130
     13  C        -20.0900   13.4820  -29.0640 C.3     1  UNL1        0.0120
     14  C        -22.5870   13.3580  -29.3930 C.3     1  UNL1        0.0120
@<TRIPOS>BOND
     1    14    12    1
     2    13    12    1
     3    12     3    1
     4     3     4    2
     5     3     2    1
     6     4     5    1
     7     2     1    2
     8     5     6    2
     9     1     6    1
    10     1     8    1
    11     6     7    1
    12     8     9    1
    13     9    10    1
    14    10    11    3
