@<TRIPOS>MOLECULE
/localscratch/kbui/NexusMol/examples/_artifacts/vina_mpro/6W63_mol1_prepared_scored.pdbqt
 12 12 0 0 0
SMALL
GASTEIGER

@<TRIPOS>ATOM
      1  C        -21.8110   15.7650  -23.7590 C.3     1  UNL1        0.0480
      2  C        -21.7920   15.2260  -25.1600 C.2     1  UNL1       -0.0090
      3  C        -22.7340   15.6910  -26.0900 C.2     1  UNL1        0.0070
      4  C        -22.7440   15.2100  -27.4030 C.2     1  UNL1        0.0040
      5  C        -21.8140   14.2510  -27.8240 C.2     1  UNL1       -0.0420
      6  C        -20.8730   13.7870  -26.8950 C.2     1  UNL1        0.0500
      7  C        -20.8650   14.2690  -25.5850 C.2     1  UNL1        0.1180
      8  O        -19.9070   13.7490  -24.7620 O.2     1  UNL1       -0.5080
      9  H        -20.3150   13.1040  -24.1630 H       1  UNL1        0.2930
     10  C        -21.8430   13.7430  -29.2530 C.3     1  UNL1        0.0130
     11  C        -22.5630   12.3960  -29.3560 C.3     1  UNL1        0.0120
     12  C        -22.4660   14.7680  -30.2030 C.3     1  UNL1        0.0120
@<TRIPOS>BOND
     1    12    10    1
     2    11    10    1
     3    10     5    1
     4     5     4    2
     5     5     6    1
     6     4     3    1
     7     6     7    2
     8     3     2    2
     9     7     2    1
    10     7     8    1
    11     2     1    1
    12     8     9    1
