@<TRIPOS>MOLECULE
/localscratch/kbui/NexusMol/examples/_artifacts/vina_mpro/6W63_mol4_prepared_scored.pdbqt
 24 26 0 0 0
SMALL
GASTEIGER

@<TRIPOS>ATOM
      1  C        -23.6260   17.5140  -26.0340 C.3     1  UNL1        0.3070
      2  C        -22.4470   18.3420  -26.3770 C.2     1  UNL1        0.1740
      3  C        -20.6320   19.5940  -26.6430 C.2     1  UNL1        0.1140
      4  C        -21.4480   18.9600  -25.6660 C.2     1  UNL1        0.0810
      5  N        -21.1300   19.3570  -27.8710 N.2     1  UNL1       -0.0790
      6  O        -22.2560   18.5800  -27.6990 O.2     1  UNL1       -0.3570
      7  C        -19.4210   20.3990  -26.4440 C.2     1  UNL1        0.0040
      8  C        -17.0960   21.9670  -26.0560 C.2     1  UNL1       -0.0510
      9  C        -18.2650   22.2420  -25.3420 C.2     1  UNL1        0.0040
     10  C        -17.0870   20.8920  -26.9490 C.2     1  UNL1        0.0040
     11  C        -19.4150   21.4700  -25.5380 C.2     1  UNL1        0.0110
     12  C        -18.2390   20.1190  -27.1450 C.2     1  UNL1        0.0110
     13  C        -15.8540   22.7730  -25.8220 C.3     1  UNL1        0.0440
     14  O        -23.1510   16.3680  -25.3290 O.2     1  UNL1       -0.4850
     15  C        -22.3270   15.5050  -26.0040 C.2     1  UNL1        0.1230
     16  C        -22.5340   15.0560  -27.3140 C.2     1  UNL1        0.0500
     17  C        -21.2010   15.0640  -25.2890 C.2     1  UNL1       -0.0090
     18  C        -21.6340   14.1690  -27.9290 C.2     1  UNL1       -0.0420
     19  C        -20.3020   14.1800  -25.8990 C.2     1  UNL1        0.0070
     20  C        -20.5160   13.7370  -27.2050 C.2     1  UNL1        0.0040
     21  C        -20.9490   15.5280  -23.8810 C.3     1  UNL1        0.0480
     22  C        -21.8880   13.7000  -29.3520 C.3     1  UNL1        0.0130
     23  C        -22.6190   12.3550  -29.3790 C.3     1  UNL1        0.0120
     24  C        -22.6480   14.7510  -30.1650 C.3     1  UNL1        0.0120
@<TRIPOS>BOND
     1    24    22    1
     2    23    22    1
     3    22    18    1
     4    18    16    1
     5    18    20    2
     6     5     6    1
     7     5     3    2
     8     6     2    1
     9    16    15    2
    10    20    19    1
    11    12    10    1
    12    12     7    2
    13    10     8    2
    14     3     7    1
    15     3     4    1
    16     7    11    1
    17     2     1    1
    18     2     4    2
    19     8    13    1
    20     8     9    1
    21     1    14    1
    22    15    14    1
    23    15    17    1
    24    19    17    2
    25    11     9    2
    26    17    21    1
