@<TRIPOS>MOLECULE
/localscratch/kbui/NexusMol/examples/_artifacts/vina_mpro/6W63_mol4_prepared_scored.pdbqt
 24 26 0 0 0
SMALL
GASTEIGER

@<TRIPOS>ATOM
      1  C        -19.2270   17.7460  -28.5530 C.3     1  UNL1        0.3070
      2  C        -19.1910   18.7240  -27.4410 C.2     1  UNL1        0.1740
      3  C        -19.1460   20.3700  -25.9500 C.2     1  UNL1        0.1140
      4  C        -19.2040   20.0940  -27.3440 C.2     1  UNL1        0.0810
      5  N        -19.1020   19.2140  -25.2620 N.2     1  UNL1       -0.0790
      6  O        -19.1300   18.1970  -26.1920 O.2     1  UNL1       -0.3570
      7  C        -19.1320   21.6720  -25.2740 C.2     1  UNL1        0.0040
      8  C        -19.0860   24.1840  -23.9690 C.2     1  UNL1       -0.0510
      9  C        -18.0850   23.8400  -24.8810 C.2     1  UNL1        0.0040
     10  C        -20.1210   23.2770  -23.7280 C.2     1  UNL1        0.0040
     11  C        -18.1060   22.5960  -25.5210 C.2     1  UNL1        0.0110
     12  C        -20.1420   22.0320  -24.3690 C.2     1  UNL1        0.0110
     13  C        -19.0830   25.5300  -23.3070 C.3     1  UNL1        0.0440
     14  O        -19.8890   16.5780  -28.0710 O.2     1  UNL1       -0.4850
     15  C        -20.8000   15.9760  -28.9000 C.2     1  UNL1        0.1230
     16  C        -21.4460   16.6030  -29.9730 C.2     1  UNL1        0.0500
     17  C        -21.0740   14.6280  -28.6170 C.2     1  UNL1       -0.0090
     18  C        -22.3680   15.9070  -30.7740 C.2     1  UNL1       -0.0420
     19  C        -21.9920   13.9310  -29.4130 C.2     1  UNL1        0.0070
     20  C        -22.6320   14.5640  -30.4800 C.2     1  UNL1        0.0040
     21  C        -20.3960   13.9260  -27.4730 C.3     1  UNL1        0.0480
     22  C        -23.0530   16.6170  -31.9300 C.3     1  UNL1        0.0130
     23  C        -24.5730   16.4400  -31.8780 C.3     1  UNL1        0.0120
     24  C        -22.6770   18.1000  -31.9830 C.3     1  UNL1        0.0120
@<TRIPOS>BOND
     1    24    22    1
     2    22    23    1
     3    22    18    1
     4    18    20    2
     5    18    16    1
     6    20    19    1
     7    16    15    2
     8    19    17    2
     9    15    17    1
    10    15    14    1
    11    17    21    1
    12     1    14    1
    13     1     2    1
    14     2     4    2
    15     2     6    1
    16     4     3    1
    17     6     5    1
    18     3     7    1
    19     3     5    2
    20    11     7    2
    21    11     9    1
    22     7    12    1
    23     9     8    2
    24    12    10    2
    25     8    10    1
    26     8    13    1
