@<TRIPOS>MOLECULE
/localscratch/kbui/NexusMol/examples/_artifacts/vina_mpro/6W63_aspirin_prepared_scored.pdbqt
 14 14 0 0 0
SMALL
GASTEIGER

@<TRIPOS>ATOM
      1  C        -20.7760   15.0290  -27.9300 C.2     1  UNL1        0.1450
      2  C        -20.2150   16.3100  -27.9690 C.2     1  UNL1        0.0480
      3  C        -20.5200   17.1660  -29.0260 C.2     1  UNL1        0.0040
      4  C        -21.3700   16.7370  -30.0450 C.2     1  UNL1        0.0010
      5  C        -21.9150   15.4490  -30.0130 C.2     1  UNL1        0.0190
      6  C        -21.6180   14.5750  -28.9560 C.2     1  UNL1        0.1020
      7  O        -20.4070   14.2120  -26.8580 O.3     1  UNL1       -0.4260
      8  C        -21.0160   14.5870  -25.6660 C.2     1  UNL1        0.3080
      9  O        -22.1960   14.8710  -25.5060 O.2     1  UNL1       -0.2520
     10  C        -19.9810   14.6190  -24.5810 C.3     1  UNL1        0.1390
     11  C        -22.1690   13.1940  -28.9310 C.2     1  UNL1        0.3390
     12  O        -22.0030   12.3210  -29.7620 O.2     1  UNL1       -0.2460
     13  O        -22.9270   12.9610  -27.8410 O.3     1  UNL1       -0.4780
     14  H        -22.3250   13.1520  -27.0930 H       1  UNL1        0.2970
@<TRIPOS>BOND
     1     4     5    2
     2     4     3    1
     3     5     6    1
     4    12    11    2
     5     3     2    2
     6     6    11    1
     7     6     1    2
     8    11    13    1
     9     2     1    1
    10     1     7    1
    11    13    14    1
    12     7     8    1
    13     8     9    2
    14     8    10    1
