@<TRIPOS>MOLECULE
/localscratch/kbui/NexusMol/examples/_artifacts/vina_mpro/6W63_aspirin_prepared_scored.pdbqt
 14 14 0 0 0
SMALL
GASTEIGER

@<TRIPOS>ATOM
      1  C        -20.7090   15.6570  -29.3190 C.2     1  UNL1        0.1450
      2  C        -19.7480   16.2960  -28.5280 C.2     1  UNL1        0.0480
      3  C        -19.6660   17.6870  -28.5310 C.2     1  UNL1        0.0040
      4  C        -20.5310   18.4330  -29.3310 C.2     1  UNL1        0.0010
      5  C        -21.4780   17.7910  -30.1350 C.2     1  UNL1        0.0190
      6  C        -21.5740   16.3910  -30.1440 C.2     1  UNL1        0.1020
      7  O        -20.7200   14.2600  -29.2920 O.3     1  UNL1       -0.4260
      8  C        -20.8870   13.7520  -28.0080 C.2     1  UNL1        0.3080
      9  O        -20.0160   13.2830  -27.2880 O.2     1  UNL1       -0.2520
     10  C        -22.3370   13.8420  -27.6360 C.3     1  UNL1        0.1390
     11  C        -22.5590   15.7000  -31.0180 C.2     1  UNL1        0.3390
     12  O        -23.4320   14.9260  -30.6730 O.2     1  UNL1       -0.2460
     13  O        -22.4020   16.0120  -32.3190 O.3     1  UNL1       -0.4780
     14  H        -21.6540   15.4480  -32.6060 H       1  UNL1        0.2970
@<TRIPOS>BOND
     1    14    13    1
     2    13    11    1
     3    11    12    2
     4    11     6    1
     5     6     5    1
     6     6     1    2
     7     5     4    2
     8     4     3    1
     9     1     7    1
    10     1     2    1
    11     7     8    1
    12     3     2    2
    13     8    10    1
    14     8     9    2
