@<TRIPOS>MOLECULE
/localscratch/kbui/NexusMol/examples/_artifacts/vina_mpro/6W63_mol1_prepared_scored.pdbqt
 12 12 0 0 0
SMALL
GASTEIGER

@<TRIPOS>ATOM
      1  C        -22.0870   14.2080  -20.5440 C.3     1  UNL1        0.0480
      2  C        -21.6070   14.5840  -21.9160 C.2     1  UNL1       -0.0090
      3  C        -22.0140   15.8030  -22.4780 C.2     1  UNL1        0.0070
      4  C        -21.5860   16.1850  -23.7530 C.2     1  UNL1        0.0040
      5  C        -20.7400   15.3580  -24.5040 C.2     1  UNL1       -0.0420
      6  C        -20.3350   14.1400  -23.9420 C.2     1  UNL1        0.0500
      7  C        -20.7630   13.7620  -22.6690 C.2     1  UNL1        0.1180
      8  O        -20.3090   12.5550  -22.2180 O.2     1  UNL1       -0.5080
      9  H        -21.0650   12.0030  -21.9660 H       1  UNL1        0.2930
     10  C        -20.2880   15.7900  -25.8860 C.3     1  UNL1        0.0130
     11  C        -20.3050   14.6210  -26.8740 C.3     1  UNL1        0.0120
     12  C        -21.1240   16.9600  -26.4120 C.3     1  UNL1        0.0120
@<TRIPOS>BOND
     1    11    10    1
     2    12    10    1
     3    10     5    1
     4     5     6    2
     5     5     4    1
     6     6     7    1
     7     4     3    2
     8     7     8    1
     9     7     2    2
    10     3     2    1
    11     8     9    1
    12     2     1    1
