@<TRIPOS>MOLECULE
/localscratch/kbui/NexusMol/examples/_artifacts/vina_mpro/6W63_mol4_prepared_scored.pdbqt
 24 26 0 0 0
SMALL
GASTEIGER

@<TRIPOS>ATOM
      1  C        -22.2950   13.8460  -28.8430 C.3     1  UNL1        0.3070
      2  C        -21.9610   14.2310  -27.4520 C.2     1  UNL1        0.1740
      3  C        -21.6760   14.9400  -25.3670 C.2     1  UNL1        0.1140
      4  C        -22.5540   15.0040  -26.4840 C.2     1  UNL1        0.0810
      5  N        -20.6190   14.1630  -25.6660 N.2     1  UNL1       -0.0790
      6  O        -20.8010   13.7260  -26.9610 O.2     1  UNL1       -0.3570
      7  C        -21.8160   15.5820  -24.0540 C.2     1  UNL1        0.0040
      8  C        -22.0800   16.8370  -21.5310 C.2     1  UNL1       -0.0510
      9  C        -22.4430   17.5110  -22.7000 C.2     1  UNL1        0.0040
     10  C        -21.6050   15.5270  -21.6260 C.2     1  UNL1        0.0040
     11  C        -22.3070   16.8910  -23.9470 C.2     1  UNL1        0.0110
     12  C        -21.4690   14.9070  -22.8750 C.2     1  UNL1        0.0110
     13  C        -22.2570   17.4890  -20.1920 C.3     1  UNL1        0.0440
     14  O        -21.3810   14.5240  -29.7030 O.2     1  UNL1       -0.4850
     15  C        -21.7420   15.7650  -30.1600 C.2     1  UNL1        0.1230
     16  C        -22.8110   16.0220  -31.0280 C.2     1  UNL1        0.0500
     17  C        -20.9530   16.8310  -29.6970 C.2     1  UNL1       -0.0090
     18  C        -23.1100   17.3300  -31.4460 C.2     1  UNL1       -0.0420
     19  C        -21.2490   18.1360  -30.1110 C.2     1  UNL1        0.0070
     20  C        -22.3160   18.3830  -30.9760 C.2     1  UNL1        0.0040
     21  C        -19.7990   16.5900  -28.7630 C.3     1  UNL1        0.0480
     22  C        -24.2760   17.5740  -32.3900 C.3     1  UNL1        0.0130
     23  C        -25.4300   16.6040  -32.1220 C.3     1  UNL1        0.0120
     24  C        -24.7570   19.0260  -32.3260 C.3     1  UNL1        0.0120
@<TRIPOS>BOND
     1    22    24    1
     2    22    23    1
     3    22    18    1
     4    18    16    1
     5    18    20    2
     6    16    15    2
     7    20    19    1
     8    15    14    1
     9    15    17    1
    10    19    17    2
    11    14     1    1
    12    17    21    1
    13     1     2    1
    14     2     6    1
    15     2     4    2
    16     6     5    1
    17     4     3    1
    18     5     3    2
    19     3     7    1
    20     7    11    2
    21     7    12    1
    22    11     9    1
    23    12    10    2
    24     9     8    2
    25    10     8    1
    26     8    13    1
