@<TRIPOS>MOLECULE
/localscratch/kbui/NexusMol/examples/_artifacts/vina_mpro/6W63_mol3_prepared_scored.pdbqt
 23 25 0 0 0
SMALL
GASTEIGER

@<TRIPOS>ATOM
      1  O        -20.1600   16.0320  -27.8800 O.2     1  UNL1       -0.4850
      2  C        -21.0380   15.8470  -28.9180 C.2     1  UNL1        0.1230
      3  C        -21.4890   14.5300  -29.1060 C.2     1  UNL1       -0.0090
      4  C        -22.4010   14.2570  -30.1340 C.2     1  UNL1        0.0070
      5  C        -22.8700   15.2800  -30.9590 C.2     1  UNL1        0.0040
      6  C        -21.5230   16.8690  -29.7420 C.2     1  UNL1        0.0500
      7  C        -22.4410   16.5990  -30.7720 C.2     1  UNL1       -0.0420
      8  C        -21.0030   13.4140  -28.2240 C.3     1  UNL1        0.0480
      9  C        -22.9780   17.7010  -31.6690 C.3     1  UNL1        0.0130
     10  C        -21.8690   18.6670  -32.0960 C.3     1  UNL1        0.0120
     11  C        -23.7060   17.1330  -32.8880 C.3     1  UNL1        0.0120
     12  C        -20.6180   16.7390  -26.7230 C.3     1  UNL1        0.3070
     13  C        -19.9070   18.0330  -26.6290 C.2     1  UNL1        0.1740
     14  C        -19.9070   19.0810  -25.7420 C.2     1  UNL1        0.0810
     15  O        -19.0360   18.3090  -27.6330 O.2     1  UNL1       -0.3570
     16  C        -18.9860   20.0220  -26.2770 C.2     1  UNL1        0.1140
     17  N        -18.4610   19.5420  -27.4180 N.2     1  UNL1       -0.0790
     18  C        -18.6040   21.3330  -25.7400 C.2     1  UNL1        0.0040
     19  C        -17.3380   21.8760  -26.0160 C.2     1  UNL1        0.0100
     20  C        -19.4870   22.0770  -24.9440 C.2     1  UNL1        0.0100
     21  C        -16.9660   23.1240  -25.5070 C.2     1  UNL1        0.0010
     22  C        -19.1140   23.3250  -24.4350 C.2     1  UNL1        0.0010
     23  C        -17.8540   23.8470  -24.7160 C.2     1  UNL1        0.0000
@<TRIPOS>BOND
     1    11     9    1
     2    10     9    1
     3     9     7    1
     4     5     7    2
     5     5     4    1
     6     7     6    1
     7     4     3    2
     8     6     2    2
     9     3     2    1
    10     3     8    1
    11     2     1    1
    12     1    12    1
    13    15    17    1
    14    15    13    1
    15    17    16    2
    16    12    13    1
    17    13    14    2
    18    16    14    1
    19    16    18    1
    20    19    18    2
    21    19    21    1
    22    18    20    1
    23    21    23    2
    24    20    22    2
    25    23    22    1
