@<TRIPOS>MOLECULE
/localscratch/kbui/NexusMol/examples/_artifacts/vina_mpro/6W63_mol3_prepared_scored.pdbqt
 23 25 0 0 0
SMALL
GASTEIGER

@<TRIPOS>ATOM
      1  O        -23.1590   16.9850  -25.5350 O.2     1  UNL1       -0.4850
      2  C        -22.2330   16.0790  -25.0870 C.2     1  UNL1        0.1230
      3  C        -21.5930   15.3200  -26.0820 C.2     1  UNL1       -0.0090
      4  C        -20.6190   14.3830  -25.7100 C.2     1  UNL1        0.0070
      5  C        -20.2760   14.2090  -24.3690 C.2     1  UNL1        0.0040
      6  C        -21.8720   15.9060  -23.7460 C.2     1  UNL1        0.0500
      7  C        -20.8930   14.9690  -23.3700 C.2     1  UNL1       -0.0420
      8  C        -21.9430   15.4970  -27.5330 C.3     1  UNL1        0.0480
      9  C        -20.4910   14.7780  -21.9180 C.3     1  UNL1        0.0130
     10  C        -21.6090   14.1140  -21.1090 C.3     1  UNL1        0.0120
     11  C        -19.1850   13.9890  -21.7930 C.3     1  UNL1        0.0120
     12  C        -23.1650   18.2930  -24.9550 C.3     1  UNL1        0.3070
     13  C        -22.0160   19.0640  -25.4780 C.2     1  UNL1        0.1740
     14  C        -20.9660   19.7490  -24.9170 C.2     1  UNL1        0.0810
     15  O        -21.9270   19.1570  -26.8290 O.2     1  UNL1       -0.3570
     16  C        -20.2350   20.2760  -26.0150 C.2     1  UNL1        0.1140
     17  N        -20.8220   19.9070  -27.1680 N.2     1  UNL1       -0.0790
     18  C        -19.0220   21.1000  -25.9940 C.2     1  UNL1        0.0040
     19  C        -18.9930   22.3100  -25.2800 C.2     1  UNL1        0.0100
     20  C        -17.8640   20.7050  -26.6790 C.2     1  UNL1        0.0100
     21  C        -17.8410   23.1020  -25.2560 C.2     1  UNL1        0.0010
     22  C        -16.7110   21.4970  -26.6540 C.2     1  UNL1        0.0010
     23  C        -16.7010   22.6950  -25.9440 C.2     1  UNL1        0.0000
@<TRIPOS>BOND
     1     8     3    1
     2    17    15    1
     3    17    16    2
     4    15    13    1
     5    20    22    1
     6    20    18    2
     7    22    23    2
     8     3     4    1
     9     3     2    2
    10    16    18    1
    11    16    14    1
    12    18    19    1
    13    23    21    1
    14     4     5    2
    15     1     2    1
    16     1    12    1
    17    13    12    1
    18    13    14    2
    19    19    21    2
    20     2     6    1
    21     5     7    1
    22     6     7    2
    23     7     9    1
    24     9    11    1
    25     9    10    1
