@<TRIPOS>MOLECULE
/localscratch/kbui/NexusMol/examples/_artifacts/vina_mpro/6W63_mol3_prepared_scored.pdbqt
 23 25 0 0 0
SMALL
GASTEIGER

@<TRIPOS>ATOM
      1  O        -19.5180   16.5520  -28.7980 O.2     1  UNL1       -0.4850
      2  C        -20.6400   16.0340  -29.3920 C.2     1  UNL1        0.1230
      3  C        -20.8250   14.6500  -29.2390 C.2     1  UNL1       -0.0090
      4  C        -21.9570   14.0420  -29.8000 C.2     1  UNL1        0.0070
      5  C        -22.9000   14.8010  -30.4940 C.2     1  UNL1        0.0040
      6  C        -21.5980   16.7880  -30.0790 C.2     1  UNL1        0.0500
      7  C        -22.7360   16.1830  -30.6390 C.2     1  UNL1       -0.0420
      8  C        -19.8260   13.8150  -28.4880 C.3     1  UNL1        0.0480
      9  C        -23.7840   16.9930  -31.3830 C.3     1  UNL1        0.0130
     10  C        -23.8230   18.4440  -30.8930 C.3     1  UNL1        0.0120
     11  C        -23.5750   16.9330  -32.8970 C.3     1  UNL1        0.0120
     12  C        -19.6630   17.7030  -27.9610 C.3     1  UNL1        0.3070
     13  C        -20.2970   17.3020  -26.6860 C.2     1  UNL1        0.1740
     14  C        -20.0860   16.3050  -25.7650 C.2     1  UNL1        0.0810
     15  O        -21.3460   18.0600  -26.2770 O.2     1  UNL1       -0.3570
     16  C        -21.0840   16.4960  -24.7730 C.2     1  UNL1        0.1140
     17  N        -21.8380   17.5640  -25.0890 N.2     1  UNL1       -0.0790
     18  C        -21.3300   15.7080  -23.5610 C.2     1  UNL1        0.0040
     19  C        -22.1830   16.1920  -22.5550 C.2     1  UNL1        0.0100
     20  C        -20.7260   14.4550  -23.3740 C.2     1  UNL1        0.0100
     21  C        -22.4220   15.4460  -21.3960 C.2     1  UNL1        0.0010
     22  C        -20.9640   13.7110  -22.2140 C.2     1  UNL1        0.0010
     23  C        -21.8110   14.2070  -21.2260 C.2     1  UNL1        0.0000
@<TRIPOS>BOND
     1    11     9    1
     2     9    10    1
     3     9     7    1
     4     7     5    2
     5     7     6    1
     6     5     4    1
     7     6     2    2
     8     4     3    2
     9     2     3    1
    10     2     1    1
    11     3     8    1
    12     1    12    1
    13    12    13    1
    14    13    15    1
    15    13    14    2
    16    15    17    1
    17    14    16    1
    18    17    16    2
    19    16    18    1
    20    18    20    2
    21    18    19    1
    22    20    22    1
    23    19    21    2
    24    22    23    2
    25    21    23    1
