@<TRIPOS>MOLECULE
/localscratch/kbui/NexusMol/examples/_artifacts/vina_mpro/6W63_aspirin_prepared_scored.pdbqt
 14 14 0 0 0
SMALL
GASTEIGER

@<TRIPOS>ATOM
      1  C        -20.2800   14.9830  -27.4720 C.2     1  UNL1        0.1450
      2  C        -19.8810   15.6830  -28.6160 C.2     1  UNL1        0.0480
      3  C        -19.6420   17.0540  -28.5370 C.2     1  UNL1        0.0040
      4  C        -19.8140   17.7220  -27.3250 C.2     1  UNL1        0.0010
      5  C        -20.2310   17.0230  -26.1880 C.2     1  UNL1        0.0190
      6  C        -20.4760   15.6420  -26.2490 C.2     1  UNL1        0.1020
      7  O        -20.5310   13.6170  -27.6260 O.3     1  UNL1       -0.4260
      8  C        -21.8010   13.3610  -28.1310 C.2     1  UNL1        0.3080
      9  O        -22.8610   13.4530  -27.5260 O.2     1  UNL1       -0.2520
     10  C        -21.6750   12.9180  -29.5590 C.3     1  UNL1        0.1390
     11  C        -20.9480   14.8970  -25.0520 C.2     1  UNL1        0.3390
     12  O        -21.8800   15.1880  -24.3260 O.2     1  UNL1       -0.2460
     13  O        -20.2110   13.7960  -24.8060 O.3     1  UNL1       -0.4780
     14  H        -20.3760   13.6130  -23.8580 H       1  UNL1        0.2970
@<TRIPOS>BOND
     1    10     8    1
     2     2     3    1
     3     2     1    2
     4     3     4    2
     5     8     7    1
     6     8     9    2
     7     7     1    1
     8     1     6    1
     9     4     5    1
    10     6     5    2
    11     6    11    1
    12    11    13    1
    13    11    12    2
    14    13    14    1
