@<TRIPOS>MOLECULE
/localscratch/kbui/NexusMol/examples/_artifacts/vina_mpro/6W63_mol4_prepared_scored.pdbqt
 24 26 0 0 0
SMALL
GASTEIGER

@<TRIPOS>ATOM
      1  C        -18.4320   20.2460  -27.2990 C.3     1  UNL1        0.3070
      2  C        -19.0780   18.9130  -27.2540 C.2     1  UNL1        0.1740
      3  C        -20.0580   16.9290  -27.4390 C.2     1  UNL1        0.1140
      4  C        -19.5730   18.0360  -28.1870 C.2     1  UNL1        0.0810
      5  N        -19.8540   17.1470  -26.1270 N.2     1  UNL1       -0.0790
      6  O        -19.2470   18.3790  -26.0180 O.2     1  UNL1       -0.3570
      7  C        -20.6920   15.6990  -27.9280 C.2     1  UNL1        0.0040
      8  C        -21.9280   13.3280  -28.8560 C.2     1  UNL1       -0.0510
      9  C        -22.6820   14.3190  -28.2210 C.2     1  UNL1        0.0040
     10  C        -20.5600   13.5360  -29.0440 C.2     1  UNL1        0.0040
     11  C        -22.0690   15.4880  -27.7590 C.2     1  UNL1        0.0110
     12  C        -19.9470   14.7060  -28.5800 C.2     1  UNL1        0.0110
     13  C        -22.5900   12.0890  -29.3830 C.3     1  UNL1        0.0440
     14  O        -17.9330   20.5200  -25.9910 O.2     1  UNL1       -0.4850
     15  C        -18.3960   21.6450  -25.3590 C.2     1  UNL1        0.1230
     16  C        -19.6400   21.7560  -24.7250 C.2     1  UNL1        0.0500
     17  C        -17.5230   22.7460  -25.3710 C.2     1  UNL1       -0.0090
     18  C        -20.0340   22.9510  -24.1000 C.2     1  UNL1       -0.0420
     19  C        -17.9120   23.9390  -24.7480 C.2     1  UNL1        0.0070
     20  C        -19.1540   24.0400  -24.1190 C.2     1  UNL1        0.0040
     21  C        -16.1800   22.6590  -26.0410 C.3     1  UNL1        0.0480
     22  C        -21.3910   23.0390  -23.4220 C.3     1  UNL1        0.0130
     23  C        -22.2060   21.7580  -23.6250 C.3     1  UNL1        0.0120
     24  C        -21.2570   23.3710  -21.9340 C.3     1  UNL1        0.0120
@<TRIPOS>BOND
     1    13     8    1
     2    10     8    2
     3    10    12    1
     4     8     9    1
     5    12     7    2
     6     9    11    2
     7     4     3    1
     8     4     2    2
     9     7    11    1
    10     7     3    1
    11     3     5    2
    12     1     2    1
    13     1    14    1
    14     2     6    1
    15     5     6    1
    16    21    17    1
    17    14    15    1
    18    17    15    2
    19    17    19    1
    20    15    16    1
    21    19    20    2
    22    16    18    2
    23    20    18    1
    24    18    22    1
    25    23    22    1
    26    22    24    1
