@<TRIPOS>MOLECULE
/localscratch/kbui/NexusMol/examples/_artifacts/vina_mpro/6W63_mol2_prepared_scored.pdbqt
 14 14 0 0 0
SMALL
GASTEIGER

@<TRIPOS>ATOM
      1  C        -20.6840   15.0150  -26.8880 C.2     1  UNL1        0.1230
      2  C        -20.2870   14.3520  -25.7210 C.2     1  UNL1        0.0500
      3  C        -20.9220   14.6010  -24.4910 C.2     1  UNL1       -0.0420
      4  C        -21.9660   15.5330  -24.4520 C.2     1  UNL1        0.0040
      5  C        -22.3680   16.1980  -25.6100 C.2     1  UNL1        0.0070
      6  C        -21.7340   15.9470  -26.8340 C.2     1  UNL1       -0.0090
      7  C        -22.1840   16.6750  -28.0710 C.3     1  UNL1        0.0480
      8  O        -20.1220   14.8330  -28.1270 O.2     1  UNL1       -0.4810
      9  C        -20.0730   13.5060  -28.6440 C.3     1  UNL1        0.3180
     10  C        -21.4350   13.0860  -29.0070 C.1     1  UNL1       -0.0650
     11  C        -22.5470   12.7430  -29.3040 C.1     1  UNL1        0.0070
     12  C        -20.4670   13.8650  -23.2420 C.3     1  UNL1        0.0130
     13  C        -21.3760   14.1670  -22.0480 C.3     1  UNL1        0.0120
     14  C        -19.0060   14.1740  -22.9070 C.3     1  UNL1        0.0120
@<TRIPOS>BOND
     1    11    10    3
     2    10     9    1
     3     9     8    1
     4     8     1    1
     5     7     6    1
     6     1     6    2
     7     1     2    1
     8     6     5    1
     9     2     3    2
    10     5     4    2
    11     3     4    1
    12     3    12    1
    13    12    14    1
    14    12    13    1
