@<TRIPOS>MOLECULE
/localscratch/kbui/NexusMol/examples/_artifacts/vina_mpro/6W63_aspirin_prepared_scored.pdbqt
 14 14 0 0 0
SMALL
GASTEIGER

@<TRIPOS>ATOM
      1  C        -18.7930   22.1110  -25.5800 C.2     1  UNL1        0.1450
      2  C        -18.8950   20.7430  -25.8570 C.2     1  UNL1        0.0480
      3  C        -19.5500   19.9030  -24.9570 C.2     1  UNL1        0.0040
      4  C        -20.0870   20.4270  -23.7820 C.2     1  UNL1        0.0010
      5  C        -19.9680   21.7920  -23.4980 C.2     1  UNL1        0.0190
      6  C        -19.3110   22.6510  -24.3930 C.2     1  UNL1        0.1020
      7  O        -18.1000   22.8910  -26.5080 O.3     1  UNL1       -0.4260
      8  C        -16.8760   22.3360  -26.8650 C.2     1  UNL1        0.3080
      9  O        -16.5950   21.8090  -27.9330 O.2     1  UNL1       -0.2520
     10  C        -15.9320   22.4580  -25.7060 C.3     1  UNL1        0.1390
     11  C        -19.1540   24.0970  -24.0850 C.2     1  UNL1        0.3390
     12  O        -20.0390   24.9240  -23.9730 O.2     1  UNL1       -0.2460
     13  O        -17.8640   24.4550  -23.9330 O.3     1  UNL1       -0.4780
     14  H        -17.4540   24.2210  -24.7910 H       1  UNL1        0.2970
@<TRIPOS>BOND
     1     9     8    2
     2     8     7    1
     3     8    10    1
     4     7     1    1
     5     2     1    2
     6     2     3    1
     7     1     6    1
     8     3     4    2
     9    14    13    1
    10     6    11    1
    11     6     5    2
    12    11    12    2
    13    11    13    1
    14     4     5    1
