@<TRIPOS>MOLECULE
/localscratch/kbui/NexusMol/examples/_artifacts/vina_mpro/6W63_mol4_prepared_scored.pdbqt
 24 26 0 0 0
SMALL
GASTEIGER

@<TRIPOS>ATOM
      1  C        -19.5550   17.6660  -27.9080 C.3     1  UNL1        0.3070
      2  C        -20.2740   17.3230  -26.6590 C.2     1  UNL1        0.1740
      3  C        -21.1740   16.6340  -24.7490 C.2     1  UNL1        0.1140
      4  C        -20.0910   16.4150  -25.6450 C.2     1  UNL1        0.0810
      5  N        -21.9530   17.6260  -25.2160 N.2     1  UNL1       -0.0790
      6  O        -21.3910   18.0490  -26.4010 O.2     1  UNL1       -0.3570
      7  C        -21.4760   15.9420  -23.4900 C.2     1  UNL1        0.0040
      8  C        -22.0570   14.6240  -21.0540 C.2     1  UNL1       -0.0510
      9  C        -22.5490   15.9080  -21.3010 C.2     1  UNL1        0.0040
     10  C        -21.2920   13.9930  -22.0370 C.2     1  UNL1        0.0040
     11  C        -22.2570   16.5600  -22.5030 C.2     1  UNL1        0.0110
     12  C        -20.9990   14.6470  -23.2410 C.2     1  UNL1        0.0110
     13  C        -22.3980   13.9110  -19.7790 C.3     1  UNL1        0.0440
     14  O        -19.4980   16.4830  -28.7030 O.2     1  UNL1       -0.4850
     15  C        -20.6440   16.0950  -29.3470 C.2     1  UNL1        0.1230
     16  C        -21.5060   16.9550  -30.0400 C.2     1  UNL1        0.0500
     17  C        -20.9370   14.7230  -29.2820 C.2     1  UNL1       -0.0090
     18  C        -22.6630   16.4690  -30.6730 C.2     1  UNL1       -0.0420
     19  C        -22.0890   14.2350  -29.9120 C.2     1  UNL1        0.0070
     20  C        -22.9430   15.0990  -30.6000 C.2     1  UNL1        0.0040
     21  C        -20.0310   13.7740  -28.5480 C.3     1  UNL1        0.0480
     22  C        -23.5790   17.4280  -31.4160 C.3     1  UNL1        0.0130
     23  C        -22.8960   18.7750  -31.6690 C.3     1  UNL1        0.0120
     24  C        -24.0890   16.8200  -32.7240 C.3     1  UNL1        0.0120
@<TRIPOS>BOND
     1    24    22    1
     2    23    22    1
     3    22    18    1
     4    18    20    2
     5    18    16    1
     6    20    19    1
     7    16    15    2
     8    19    17    2
     9    15    17    1
    10    15    14    1
    11    17    21    1
    12    14     1    1
    13     1     2    1
    14     2     6    1
    15     2     4    2
    16     6     5    1
    17     4     3    1
    18     5     3    2
    19     3     7    1
    20     7    12    2
    21     7    11    1
    22    12    10    1
    23    11     9    2
    24    10     8    2
    25     9     8    1
    26     8    13    1
