@<TRIPOS>MOLECULE
/localscratch/kbui/NexusMol/examples/_artifacts/vina_mpro/6W63_mol3_prepared_scored.pdbqt
 23 25 0 0 0
SMALL
GASTEIGER

@<TRIPOS>ATOM
      1  O        -23.1780   16.6280  -25.3240 O.2     1  UNL1       -0.4850
      2  C        -22.3630   15.7200  -25.9480 C.2     1  UNL1        0.1230
      3  C        -21.3460   15.1670  -25.1520 C.2     1  UNL1       -0.0090
      4  C        -20.4790   14.2160  -25.7090 C.2     1  UNL1        0.0070
      5  C        -20.6260   13.8110  -27.0350 C.2     1  UNL1        0.0040
      6  C        -22.5100   15.2970  -27.2740 C.2     1  UNL1        0.0500
      7  C        -21.6450   14.3410  -27.8340 C.2     1  UNL1       -0.0420
      8  C        -21.1740   15.5840  -23.7180 C.3     1  UNL1        0.0480
      9  C        -21.8000   13.8720  -29.2710 C.3     1  UNL1        0.0130
     10  C        -22.5100   12.5170  -29.3450 C.3     1  UNL1        0.0120
     11  C        -22.5180   14.9130  -30.1300 C.3     1  UNL1        0.0120
     12  C        -23.3540   17.9120  -25.9300 C.3     1  UNL1        0.3070
     13  C        -22.1510   18.7360  -25.6850 C.2     1  UNL1        0.1740
     14  C        -21.2150   19.3550  -26.4780 C.2     1  UNL1        0.0810
     15  O        -21.8430   18.9690  -24.3830 O.2     1  UNL1       -0.3570
     16  C        -20.3080   19.9700  -25.5740 C.2     1  UNL1        0.1140
     17  N        -20.7010   19.7360  -24.3090 N.2     1  UNL1       -0.0790
     18  C        -19.1090   20.7580  -25.8790 C.2     1  UNL1        0.0040
     19  C        -18.1460   20.2740  -26.7800 C.2     1  UNL1        0.0100
     20  C        -18.8920   22.0100  -25.2840 C.2     1  UNL1        0.0100
     21  C        -17.0000   21.0180  -27.0750 C.2     1  UNL1        0.0010
     22  C        -17.7450   22.7540  -25.5780 C.2     1  UNL1        0.0010
     23  C        -16.8000   22.2570  -26.4730 C.2     1  UNL1        0.0000
@<TRIPOS>BOND
     1    11     9    1
     2    10     9    1
     3     9     7    1
     4     7     6    1
     5     7     5    2
     6     6     2    2
     7    21    19    1
     8    21    23    2
     9     5     4    1
    10    19    18    2
    11    14    13    2
    12    14    16    1
    13    23    22    1
    14     2     1    1
    15     2     3    1
    16    12    13    1
    17    12     1    1
    18    18    16    1
    19    18    20    1
    20     4     3    2
    21    13    15    1
    22    22    20    2
    23    16    17    2
    24     3     8    1
    25    15    17    1
