@<TRIPOS>MOLECULE
/localscratch/kbui/NexusMol/examples/_artifacts/vina_mpro/6W63_mol4_prepared_scored.pdbqt
 24 26 0 0 0
SMALL
GASTEIGER

@<TRIPOS>ATOM
      1  C        -19.1430   18.0440  -28.2600 C.3     1  UNL1        0.3070
      2  C        -19.1500   19.0290  -27.1550 C.2     1  UNL1        0.1740
      3  C        -19.1710   20.6870  -25.6760 C.2     1  UNL1        0.1140
      4  C        -19.1990   20.3990  -27.0680 C.2     1  UNL1        0.0810
      5  N        -19.1100   19.5370  -24.9790 N.2     1  UNL1       -0.0790
      6  O        -19.0960   18.5130  -25.9010 O.2     1  UNL1       -0.3570
      7  C        -19.2030   21.9940  -25.0090 C.2     1  UNL1        0.0040
      8  C        -19.2430   24.5140  -23.7210 C.2     1  UNL1       -0.0510
      9  C        -18.1980   24.1750  -24.5850 C.2     1  UNL1        0.0040
     10  C        -20.2770   23.5970  -23.5200 C.2     1  UNL1        0.0040
     11  C        -18.1770   22.9270  -25.2170 C.2     1  UNL1        0.0110
     12  C        -20.2550   22.3480  -24.1520 C.2     1  UNL1        0.0110
     13  C        -19.2840   25.8640  -23.0700 C.3     1  UNL1        0.0440
     14  O        -20.2890   18.3050  -29.0690 O.2     1  UNL1       -0.4850
     15  C        -20.9810   17.2260  -29.5550 C.2     1  UNL1        0.1230
     16  C        -20.7940   15.9000  -29.1460 C.2     1  UNL1        0.0500
     17  C        -21.9430   17.5200  -30.5360 C.2     1  UNL1       -0.0090
     18  C        -21.5510   14.8540  -29.6990 C.2     1  UNL1       -0.0420
     19  C        -22.7000   16.4800  -31.0900 C.2     1  UNL1        0.0070
     20  C        -22.5060   15.1610  -30.6760 C.2     1  UNL1        0.0040
     21  C        -22.1700   18.9330  -30.9970 C.3     1  UNL1        0.0480
     22  C        -21.3230   13.4260  -29.2330 C.3     1  UNL1        0.0130
     23  C        -20.6940   13.3820  -27.8380 C.3     1  UNL1        0.0120
     24  C        -22.6150   12.6060  -29.2760 C.3     1  UNL1        0.0120
@<TRIPOS>BOND
     1    19    20    2
     2    19    17    1
     3    21    17    1
     4    20    18    1
     5    17    15    2
     6    18    22    1
     7    18    16    2
     8    15    16    1
     9    15    14    1
    10    24    22    1
    11    22    23    1
    12    14     1    1
    13     1     2    1
    14     2     4    2
    15     2     6    1
    16     4     3    1
    17     6     5    1
    18     3     7    1
    19     3     5    2
    20    11     7    2
    21    11     9    1
    22     7    12    1
    23     9     8    2
    24    12    10    2
    25     8    10    1
    26     8    13    1
