@<TRIPOS>MOLECULE
/localscratch/kbui/NexusMol/examples/_artifacts/vina_mpro/6W63_mol2_prepared_scored.pdbqt
 14 14 0 0 0
SMALL
GASTEIGER

@<TRIPOS>ATOM
      1  C        -21.9870   15.2860  -25.4950 C.2     1  UNL1        0.1230
      2  C        -22.6060   15.0590  -26.7300 C.2     1  UNL1        0.0500
      3  C        -21.9960   14.2620  -27.7160 C.2     1  UNL1       -0.0420
      4  C        -20.7460   13.6940  -27.4390 C.2     1  UNL1        0.0040
      5  C        -20.1220   13.9150  -26.2120 C.2     1  UNL1        0.0070
      6  C        -20.7330   14.7090  -25.2320 C.2     1  UNL1       -0.0090
      7  C        -20.0420   14.9330  -23.9150 C.3     1  UNL1        0.0480
      8  O        -22.5080   16.0470  -24.4800 O.2     1  UNL1       -0.4810
      9  C        -22.7040   17.4370  -24.7280 C.3     1  UNL1        0.3180
     10  C        -21.3910   18.0870  -24.8530 C.1     1  UNL1       -0.0650
     11  C        -20.3180   18.6190  -24.9550 C.1     1  UNL1        0.0070
     12  C        -22.6950   14.0370  -29.0450 C.3     1  UNL1        0.0130
     13  C        -22.5910   12.5770  -29.4950 C.3     1  UNL1        0.0120
     14  C        -22.1640   14.9800  -30.1270 C.3     1  UNL1        0.0120
@<TRIPOS>BOND
     1    14    12    1
     2    13    12    1
     3    12     3    1
     4     3     4    2
     5     3     2    1
     6     4     5    1
     7     2     1    2
     8     5     6    2
     9     1     6    1
    10     1     8    1
    11     6     7    1
    12    11    10    3
    13    10     9    1
    14     9     8    1
