@<TRIPOS>MOLECULE
/localscratch/kbui/NexusMol/examples/_artifacts/vina_mpro/7K40_mol1_prepared_scored.pdbqt
 12 12 0 0 0
SMALL
GASTEIGER

@<TRIPOS>ATOM
      1  C         13.7790  -19.6020   24.5660 C.3     1  UNL1        0.0480
      2  C         13.2410  -20.9230   24.1010 C.2     1  UNL1       -0.0090
      3  C         11.8870  -21.2260   24.3020 C.2     1  UNL1        0.0070
      4  C         11.3520  -22.4480   23.8810 C.2     1  UNL1        0.0040
      5  C         12.1580  -23.4020   23.2470 C.2     1  UNL1       -0.0420
      6  C         13.5110  -23.1000   23.0460 C.2     1  UNL1        0.0500
      7  C         14.0410  -21.8800   23.4670 C.2     1  UNL1        0.1180
      8  O         15.3720  -21.6880   23.2230 O.2     1  UNL1       -0.5080
      9  H         15.5600  -20.7370   23.2040 H       1  UNL1        0.2930
     10  C         11.5590  -24.7220   22.7980 C.3     1  UNL1        0.0130
     11  C         11.0260  -25.5290   23.9850 C.3     1  UNL1        0.0120
     12  C         10.4680  -24.5160   21.7450 C.3     1  UNL1        0.0120
@<TRIPOS>BOND
     1    12    10    1
     2    10     5    1
     3    10    11    1
     4     6     5    2
     5     6     7    1
     6     9     8    1
     7     8     7    1
     8     5     4    1
     9     7     2    2
    10     4     3    2
    11     2     3    1
    12     2     1    1
