@<TRIPOS>MOLECULE
/localscratch/kbui/NexusMol/examples/_artifacts/vina_mpro/7K40_mol3_prepared_scored.pdbqt
 23 25 0 0 0
SMALL
GASTEIGER

@<TRIPOS>ATOM
      1  O          8.6690  -27.7510   22.5920 O.2     1  UNL1       -0.4850
      2  C          9.9140  -27.5350   23.1250 C.2     1  UNL1        0.1230
      3  C          9.9360  -27.0360   24.4380 C.2     1  UNL1       -0.0090
      4  C         11.1690  -26.8040   25.0640 C.2     1  UNL1        0.0070
      5  C         12.3650  -27.0740   24.3990 C.2     1  UNL1        0.0040
      6  C         11.1200  -27.8140   22.4710 C.2     1  UNL1        0.0500
      7  C         12.3570  -27.5860   23.0970 C.2     1  UNL1       -0.0420
      8  C          8.6580  -26.7460   25.1760 C.3     1  UNL1        0.0480
      9  C         13.6710  -27.8900   22.3980 C.3     1  UNL1        0.0130
     10  C         14.4350  -26.6080   22.0550 C.3     1  UNL1        0.0120
     11  C         14.5410  -28.8410   23.2220 C.3     1  UNL1        0.0120
     12  C          8.4320  -28.9780   21.8970 C.3     1  UNL1        0.3070
     13  C          8.0980  -30.0360   22.8750 C.2     1  UNL1        0.1740
     14  C          7.4400  -30.0760   24.0790 C.2     1  UNL1        0.0810
     15  O          8.5220  -31.2890   22.5670 O.2     1  UNL1       -0.3570
     16  C          7.4990  -31.4340   24.4930 C.2     1  UNL1        0.1140
     17  N          8.1510  -32.1600   23.5680 N.2     1  UNL1       -0.0790
     18  C          6.9620  -32.0410   25.7150 C.2     1  UNL1        0.0040
     19  C          5.7920  -32.8180   25.6730 C.2     1  UNL1        0.0100
     20  C          7.5980  -31.8660   26.9530 C.2     1  UNL1        0.0100
     21  C          5.2740  -33.3990   26.8340 C.2     1  UNL1        0.0010
     22  C          7.0790  -32.4470   28.1140 C.2     1  UNL1        0.0010
     23  C          5.9170  -33.2120   28.0540 C.2     1  UNL1        0.0000
@<TRIPOS>BOND
     1    12     1    1
     2    12    13    1
     3    10     9    1
     4     9     7    1
     5     9    11    1
     6     6     7    1
     7     6     2    2
     8    15    13    1
     9    15    17    1
    10     1     2    1
    11    13    14    2
    12     7     5    2
    13     2     3    1
    14    17    16    2
    15    14    16    1
    16     5     4    1
    17     3     4    2
    18     3     8    1
    19    16    18    1
    20    19    18    2
    21    19    21    1
    22    18    20    1
    23    21    23    2
    24    20    22    2
    25    23    22    1
