@<TRIPOS>MOLECULE
/localscratch/kbui/NexusMol/examples/_artifacts/vina_mpro/7K40_mol4_prepared_scored.pdbqt
 24 26 0 0 0
SMALL
GASTEIGER

@<TRIPOS>ATOM
      1  C          9.7870  -28.0450   22.0110 C.3     1  UNL1        0.3070
      2  C          9.0520  -29.1630   22.6480 C.2     1  UNL1        0.1740
      3  C          7.9320  -30.6900   23.8080 C.2     1  UNL1        0.1140
      4  C          8.4670  -29.3740   23.8720 C.2     1  UNL1        0.0810
      5  N          8.1910  -31.2240   22.6000 N.2     1  UNL1       -0.0790
      6  O          8.8870  -30.2730   21.8860 O.2     1  UNL1       -0.3570
      7  C          7.1980  -31.4330   24.8390 C.2     1  UNL1        0.0040
      8  C          5.7990  -32.8660   26.8400 C.2     1  UNL1       -0.0510
      9  C          6.8000  -31.9540   27.1880 C.2     1  UNL1        0.0040
     10  C          5.4870  -33.0430   25.4890 C.2     1  UNL1        0.0040
     11  C          7.4930  -31.2500   26.1980 C.2     1  UNL1        0.0110
     12  C          6.1820  -32.3380   24.4990 C.2     1  UNL1        0.0110
     13  C          5.0320  -33.5960   27.9010 C.3     1  UNL1        0.0440
     14  O         11.1540  -28.1580   22.4010 O.2     1  UNL1       -0.4850
     15  C         11.8460  -26.9970   22.6310 C.2     1  UNL1        0.1230
     16  C         11.2670  -25.7280   22.7590 C.2     1  UNL1        0.0500
     17  C         13.2390  -27.1380   22.7410 C.2     1  UNL1       -0.0090
     18  C         12.0550  -24.5890   22.9960 C.2     1  UNL1       -0.0420
     19  C         14.0280  -26.0040   22.9770 C.2     1  UNL1        0.0070
     20  C         13.4420  -24.7440   23.1040 C.2     1  UNL1        0.0040
     21  C         13.8930  -28.4860   22.6090 C.3     1  UNL1        0.0480
     22  C         11.3950  -23.2270   23.1300 C.3     1  UNL1        0.0130
     23  C         10.1970  -23.2730   24.0830 C.3     1  UNL1        0.0120
     24  C         12.3980  -22.1550   23.5640 C.3     1  UNL1        0.0120
@<TRIPOS>BOND
     1     6     5    1
     2     6     2    1
     3     1    14    1
     4     1     2    1
     5    14    15    1
     6     5     3    2
     7    21    17    1
     8    15    17    2
     9    15    16    1
    10     2     4    2
    11    17    19    1
    12    16    18    2
    13    19    20    2
    14    18    20    1
    15    18    22    1
    16    22    24    1
    17    22    23    1
    18     3     4    1
    19     3     7    1
    20    12     7    2
    21    12    10    1
    22     7    11    1
    23    10     8    2
    24    11     9    2
    25     8     9    1
    26     8    13    1
