@<TRIPOS>MOLECULE
/localscratch/kbui/NexusMol/examples/_artifacts/vina_mpro/7K40_mol3_prepared_scored.pdbqt
 23 25 0 0 0
SMALL
GASTEIGER

@<TRIPOS>ATOM
      1  O         11.6920  -27.3750   24.9950 O.2     1  UNL1       -0.4850
      2  C         12.3210  -26.4010   24.2630 C.2     1  UNL1        0.1230
      3  C         13.4890  -26.8020   23.5930 C.2     1  UNL1       -0.0090
      4  C         14.1840  -25.8710   22.8080 C.2     1  UNL1        0.0070
      5  C         13.7190  -24.5620   22.6790 C.2     1  UNL1        0.0040
      6  C         11.8550  -25.0890   24.1170 C.2     1  UNL1        0.0500
      7  C         12.5480  -24.1550   23.3270 C.2     1  UNL1       -0.0420
      8  C         14.0030  -28.2090   23.7120 C.3     1  UNL1        0.0480
      9  C         12.0490  -22.7300   23.1590 C.3     1  UNL1        0.0130
     10  C         10.7920  -22.4730   23.9960 C.3     1  UNL1        0.0120
     11  C         13.1390  -21.7070   23.4830 C.3     1  UNL1        0.0120
     12  C         10.2630  -27.3510   25.0700 C.3     1  UNL1        0.3070
     13  C          9.7010  -27.4790   23.7080 C.2     1  UNL1        0.1740
     14  C          8.8800  -26.7110   22.9180 C.2     1  UNL1        0.0810
     15  O         10.0360  -28.6040   23.0270 O.2     1  UNL1       -0.3570
     16  C          8.7270  -27.4480   21.7130 C.2     1  UNL1        0.1140
     17  N          9.4350  -28.5900   21.7870 N.2     1  UNL1       -0.0790
     18  C          7.9440  -27.1010   20.5230 C.2     1  UNL1        0.0040
     19  C          6.6640  -27.6470   20.3240 C.2     1  UNL1        0.0100
     20  C          8.4450  -26.2160   19.5560 C.2     1  UNL1        0.0100
     21  C          5.9120  -27.3210   19.1920 C.2     1  UNL1        0.0010
     22  C          7.6930  -25.8910   18.4230 C.2     1  UNL1        0.0010
     23  C          6.4280  -26.4440   18.2410 C.2     1  UNL1        0.0000
@<TRIPOS>BOND
     1    23    22    2
     2    23    21    1
     3    22    20    1
     4    21    19    2
     5    20    18    2
     6    19    18    1
     7    18    16    1
     8    16    17    2
     9    16    14    1
    10    17    15    1
    11     5     4    2
    12     5     7    1
    13     4     3    1
    14    14    13    2
    15    15    13    1
    16     9     7    1
    17     9    11    1
    18     9    10    1
    19     7     6    2
    20     3     8    1
    21     3     2    2
    22    13    12    1
    23     6     2    1
    24     2     1    1
    25     1    12    1
