@<TRIPOS>MOLECULE
/localscratch/kbui/NexusMol/examples/_artifacts/vina_mpro/7K40_mol4_prepared_scored.pdbqt
 24 26 0 0 0
SMALL
GASTEIGER

@<TRIPOS>ATOM
      1  C          9.0100  -27.6020   21.8950 C.3     1  UNL1        0.3070
      2  C          8.5770  -28.8210   22.6160 C.2     1  UNL1        0.1740
      3  C          7.8200  -30.4950   23.8650 C.2     1  UNL1        0.1140
      4  C          7.8600  -29.0770   23.7590 C.2     1  UNL1        0.0810
      5  N          8.4820  -31.0440   22.8300 N.2     1  UNL1       -0.0790
      6  O          8.9500  -30.0020   22.0600 O.2     1  UNL1       -0.3570
      7  C          7.1830  -31.3190   24.8990 C.2     1  UNL1        0.0040
      8  C          5.9720  -32.9100   26.9030 C.2     1  UNL1       -0.0510
      9  C          6.9930  -32.0140   27.2290 C.2     1  UNL1        0.0040
     10  C          5.5440  -32.9910   25.5750 C.2     1  UNL1        0.0040
     11  C          7.5950  -31.2320   26.2370 C.2     1  UNL1        0.0110
     12  C          6.1460  -32.2090   24.5830 C.2     1  UNL1        0.0110
     13  C          5.3040  -33.7230   27.9710 C.3     1  UNL1        0.0440
     14  O          9.3450  -26.6240   22.8770 O.2     1  UNL1       -0.4850
     15  C         10.6570  -26.2360   22.9650 C.2     1  UNL1        0.1230
     16  C         11.7570  -27.0520   22.6700 C.2     1  UNL1        0.0500
     17  C         10.8670  -24.9120   23.3850 C.2     1  UNL1       -0.0090
     18  C         13.0710  -26.5690   22.7880 C.2     1  UNL1       -0.0420
     19  C         12.1770  -24.4280   23.5030 C.2     1  UNL1        0.0070
     20  C         13.2670  -25.2480   23.2070 C.2     1  UNL1        0.0040
     21  C          9.7080  -24.0100   23.7080 C.3     1  UNL1        0.0480
     22  C         14.2430  -27.4800   22.4610 C.3     1  UNL1        0.0130
     23  C         14.3020  -28.6830   23.4060 C.3     1  UNL1        0.0120
     24  C         14.2130  -27.9350   21.0000 C.3     1  UNL1        0.0120
@<TRIPOS>BOND
     1    24    22    1
     2     1     2    1
     3     1    14    1
     4     6     2    1
     5     6     5    1
     6    22    18    1
     7    22    23    1
     8     2     4    2
     9    16    18    1
    10    16    15    2
    11    18    20    2
    12     5     3    2
    13    14    15    1
    14    15    17    1
    15    20    19    1
    16    17    19    2
    17    17    21    1
    18     4     3    1
    19     3     7    1
    20    12     7    2
    21    12    10    1
    22     7    11    1
    23    10     8    2
    24    11     9    2
    25     8     9    1
    26     8    13    1
