@<TRIPOS>MOLECULE
/localscratch/kbui/NexusMol/examples/_artifacts/vina_mpro/7K40_mol3_prepared_scored.pdbqt
 23 25 0 0 0
SMALL
GASTEIGER

@<TRIPOS>ATOM
      1  O          9.6970  -24.9840   21.9430 O.2     1  UNL1       -0.4850
      2  C         11.0040  -25.2700   22.2430 C.2     1  UNL1        0.1230
      3  C         11.7370  -24.2240   22.8290 C.2     1  UNL1       -0.0090
      4  C         13.0760  -24.4390   23.1820 C.2     1  UNL1        0.0070
      5  C         13.6780  -25.6790   22.9680 C.2     1  UNL1        0.0040
      6  C         11.6130  -26.5140   22.0440 C.2     1  UNL1        0.0500
      7  C         12.9540  -26.7340   22.4010 C.2     1  UNL1       -0.0420
      8  C         11.1060  -22.8820   23.0750 C.3     1  UNL1        0.0480
      9  C         13.6230  -28.0820   22.1940 C.3     1  UNL1        0.0130
     10  C         14.4700  -28.0990   20.9180 C.3     1  UNL1        0.0120
     11  C         14.4570  -28.4910   23.4090 C.3     1  UNL1        0.0120
     12  C          8.6830  -25.3960   22.8650 C.3     1  UNL1        0.3070
     13  C          8.1500  -26.7110   22.4470 C.2     1  UNL1        0.1740
     14  C          8.3640  -28.0140   22.8260 C.2     1  UNL1        0.0810
     15  O          7.2270  -26.6910   21.4520 O.2     1  UNL1       -0.3570
     16  C          7.5200  -28.7900   21.9880 C.2     1  UNL1        0.1140
     17  N          6.8320  -27.9800   21.1640 N.2     1  UNL1       -0.0790
     18  C          7.3560  -30.2470   21.9540 C.2     1  UNL1        0.0040
     19  C          8.1090  -31.0710   22.8080 C.2     1  UNL1        0.0100
     20  C          6.4470  -30.8550   21.0760 C.2     1  UNL1        0.0100
     21  C          7.9590  -32.4600   22.7810 C.2     1  UNL1        0.0010
     22  C          6.2970  -32.2460   21.0490 C.2     1  UNL1        0.0010
     23  C          7.0540  -33.0470   21.9010 C.2     1  UNL1        0.0000
@<TRIPOS>BOND
     1    10     9    1
     2    22    20    1
     3    22    23    2
     4    20    18    2
     5    17    15    1
     6    17    16    2
     7    15    13    1
     8    23    21    1
     9     1     2    1
    10     1    12    1
    11    18    16    1
    12    18    19    1
    13    16    14    1
    14     6     2    2
    15     6     7    1
    16     9     7    1
    17     9    11    1
    18     2     3    1
    19     7     5    2
    20    13    14    2
    21    13    12    1
    22    21    19    2
    23     3     8    1
    24     3     4    2
    25     5     4    1
