@<TRIPOS>MOLECULE
/localscratch/kbui/NexusMol/examples/_artifacts/vina_mpro/7K40_mol1_prepared_scored.pdbqt
 12 12 0 0 0
SMALL
GASTEIGER

@<TRIPOS>ATOM
      1  C         12.7890  -27.9450   23.5890 C.3     1  UNL1        0.0480
      2  C         12.6430  -26.4530   23.5220 C.2     1  UNL1       -0.0090
      3  C         11.4750  -25.8520   24.0110 C.2     1  UNL1        0.0070
      4  C         11.3050  -24.4650   23.9640 C.2     1  UNL1        0.0040
      5  C         12.3000  -23.6390   23.4260 C.2     1  UNL1       -0.0420
      6  C         13.4680  -24.2390   22.9370 C.2     1  UNL1        0.0500
      7  C         13.6340  -25.6240   22.9860 C.2     1  UNL1        0.1180
      8  O         14.8090  -26.1040   22.4810 O.2     1  UNL1       -0.5080
      9  H         15.5260  -25.4870   22.6970 H       1  UNL1        0.2930
     10  C         12.0970  -22.1350   23.3830 C.3     1  UNL1        0.0130
     11  C         10.9010  -21.7060   24.2360 C.3     1  UNL1        0.0120
     12  C         13.3630  -21.3840   23.8020 C.3     1  UNL1        0.0120
@<TRIPOS>BOND
     1     8     9    1
     2     8     7    1
     3     6     7    1
     4     6     5    2
     5     7     2    2
     6    10     5    1
     7    10    12    1
     8    10    11    1
     9     5     4    1
    10     2     1    1
    11     2     3    1
    12     4     3    2
