@<TRIPOS>MOLECULE
/localscratch/kbui/NexusMol/examples/_artifacts/vina_mpro/7K40_aspirin_prepared_scored.pdbqt
 14 14 0 0 0
SMALL
GASTEIGER

@<TRIPOS>ATOM
      1  C          6.2560  -26.5740   20.3540 C.2     1  UNL1        0.1450
      2  C          5.7540  -26.3790   21.6460 C.2     1  UNL1        0.0480
      3  C          4.6680  -25.5290   21.8430 C.2     1  UNL1        0.0040
      4  C          4.0950  -24.8670   20.7570 C.2     1  UNL1        0.0010
      5  C          4.6110  -25.0500   19.4690 C.2     1  UNL1        0.0190
      6  C          5.7050  -25.9020   19.2530 C.2     1  UNL1        0.1020
      7  O          7.3640  -27.4160   20.2300 O.3     1  UNL1       -0.4260
      8  C          8.5540  -26.7900   20.5880 C.2     1  UNL1        0.3080
      9  O          8.9500  -25.6980   20.2010 O.2     1  UNL1       -0.2520
     10  C          9.3120  -27.6850   21.5220 C.3     1  UNL1        0.1390
     11  C          6.2770  -26.0780   17.8920 C.2     1  UNL1        0.3390
     12  O          6.8510  -25.2390   17.2230 O.2     1  UNL1       -0.2460
     13  O          6.0990  -27.3250   17.4150 O.3     1  UNL1       -0.4780
     14  H          5.2160  -27.2880   16.9920 H       1  UNL1        0.2970
@<TRIPOS>BOND
     1    14    13    1
     2    12    11    2
     3    13    11    1
     4    11     6    1
     5     6     5    1
     6     6     1    2
     7     5     4    2
     8     9     8    2
     9     7     1    1
    10     7     8    1
    11     1     2    1
    12     8    10    1
    13     4     3    1
    14     2     3    2
