@<TRIPOS>MOLECULE
/localscratch/kbui/NexusMol/examples/_artifacts/vina_mpro/7K40_mol1_prepared_scored.pdbqt
 12 12 0 0 0
SMALL
GASTEIGER

@<TRIPOS>ATOM
      1  C          8.2030  -25.3940   20.6120 C.3     1  UNL1        0.0480
      2  C          9.5460  -25.5190   21.2690 C.2     1  UNL1       -0.0090
      3  C         10.0580  -26.7930   21.5520 C.2     1  UNL1        0.0070
      4  C         11.3070  -26.9470   22.1640 C.2     1  UNL1        0.0040
      5  C         12.0770  -25.8300   22.5110 C.2     1  UNL1       -0.0420
      6  C         11.5650  -24.5570   22.2290 C.2     1  UNL1        0.0500
      7  C         10.3190  -24.4070   21.6180 C.2     1  UNL1        0.1180
      8  O          9.9150  -23.1220   21.3900 O.2     1  UNL1       -0.5080
      9  H          9.8030  -22.6670   22.2380 H       1  UNL1        0.2930
     10  C         13.4290  -26.0180   23.1750 C.3     1  UNL1        0.0130
     11  C         13.3330  -26.9430   24.3910 C.3     1  UNL1        0.0120
     12  C         14.4770  -26.5280   22.1830 C.3     1  UNL1        0.0120
@<TRIPOS>BOND
     1     1     2    1
     2     2     3    2
     3     2     7    1
     4     8     7    1
     5     8     9    1
     6     3     4    1
     7     7     6    2
     8     4     5    2
     9    12    10    1
    10     6     5    1
    11     5    10    1
    12    10    11    1
