@<TRIPOS>MOLECULE
/localscratch/kbui/NexusMol/examples/_artifacts/vina_mpro/7K40_mol1_prepared_scored.pdbqt
 12 12 0 0 0
SMALL
GASTEIGER

@<TRIPOS>ATOM
      1  C         12.6690  -21.9750   22.6380 C.3     1  UNL1        0.0480
      2  C         12.4650  -23.4610   22.5810 C.2     1  UNL1       -0.0090
      3  C         13.4270  -24.3100   23.1460 C.2     1  UNL1        0.0070
      4  C         13.2680  -25.7000   23.1110 C.2     1  UNL1        0.0040
      5  C         12.1430  -26.2780   22.5090 C.2     1  UNL1       -0.0420
      6  C         11.1830  -25.4290   21.9440 C.2     1  UNL1        0.0500
      7  C         11.3440  -24.0430   21.9820 C.2     1  UNL1        0.1180
      8  O         10.3490  -23.3090   21.4010 O.2     1  UNL1       -0.5080
      9  H          9.9380  -23.8290   20.6930 H       1  UNL1        0.2930
     10  C         11.9900  -27.7870   22.4800 C.3     1  UNL1        0.0130
     11  C         13.1870  -28.4860   23.1300 C.3     1  UNL1        0.0120
     12  C         10.6790  -28.2330   23.1330 C.3     1  UNL1        0.0120
@<TRIPOS>BOND
     1     9     8    1
     2     8     7    1
     3     6     7    1
     4     6     5    2
     5     7     2    2
     6    10     5    1
     7    10    11    1
     8    10    12    1
     9     5     4    1
    10     2     1    1
    11     2     3    1
    12     4     3    2
