@<TRIPOS>MOLECULE
/localscratch/kbui/NexusMol/examples/_artifacts/vina_mpro/7K40_mol1_prepared_scored.pdbqt
 12 12 0 0 0
SMALL
GASTEIGER

@<TRIPOS>ATOM
      1  C         14.2000  -28.4180   22.1340 C.3     1  UNL1        0.0480
      2  C         13.4650  -27.1260   22.3440 C.2     1  UNL1       -0.0090
      3  C         14.1720  -25.9930   22.7700 C.2     1  UNL1        0.0070
      4  C         13.5190  -24.7730   22.9770 C.2     1  UNL1        0.0040
      5  C         12.1400  -24.6540   22.7640 C.2     1  UNL1       -0.0420
      6  C         11.4330  -25.7870   22.3390 C.2     1  UNL1        0.0500
      7  C         12.0890  -27.0020   22.1330 C.2     1  UNL1        0.1180
      8  O         11.3050  -28.0420   21.7200 O.2     1  UNL1       -0.5080
      9  H         10.4010  -27.7230   21.5730 H       1  UNL1        0.2930
     10  C         11.4500  -23.3220   22.9940 C.3     1  UNL1        0.0130
     11  C         10.3700  -23.4280   24.0750 C.3     1  UNL1        0.0120
     12  C         12.4540  -22.2190   23.3340 C.3     1  UNL1        0.0120
@<TRIPOS>BOND
     1     9     8    1
     2     8     7    1
     3     7     6    1
     4     7     2    2
     5     1     2    1
     6     6     5    2
     7     2     3    1
     8     5     4    1
     9     5    10    1
    10     3     4    2
    11    10    12    1
    12    10    11    1
