@<TRIPOS>MOLECULE
/localscratch/kbui/NexusMol/examples/_artifacts/vina_mpro/7K40_mol4_prepared_scored.pdbqt
 24 26 0 0 0
SMALL
GASTEIGER

@<TRIPOS>ATOM
      1  C          7.5540  -29.2040   22.0790 C.3     1  UNL1        0.3070
      2  C          8.7790  -28.3750   22.1590 C.2     1  UNL1        0.1740
      3  C         10.4630  -26.9370   22.3310 C.2     1  UNL1        0.1140
      4  C          9.0480  -27.0530   22.4190 C.2     1  UNL1        0.0810
      5  N         10.9970  -28.1360   22.0350 N.2     1  UNL1       -0.0790
      6  O          9.9480  -29.0230   21.9290 O.2     1  UNL1       -0.3570
      7  C         11.2970  -25.7440   22.5200 C.2     1  UNL1        0.0040
      8  C         12.8970  -23.4350   22.8670 C.2     1  UNL1       -0.0510
      9  C         11.5600  -23.3200   22.4760 C.2     1  UNL1        0.0040
     10  C         13.4240  -24.7070   23.1030 C.2     1  UNL1        0.0040
     11  C         10.7720  -24.4620   22.3000 C.2     1  UNL1        0.0110
     12  C         12.6350  -25.8500   22.9260 C.2     1  UNL1        0.0110
     13  C         13.7330  -22.2100   23.0880 C.3     1  UNL1        0.0440
     14  O          7.9490  -30.5640   22.2510 O.2     1  UNL1       -0.4850
     15  C          7.1800  -31.3500   23.0690 C.2     1  UNL1        0.1230
     16  C          7.1560  -31.2720   24.4670 C.2     1  UNL1        0.0500
     17  C          6.3690  -32.2910   22.4120 C.2     1  UNL1       -0.0090
     18  C          6.3340  -32.1200   25.2290 C.2     1  UNL1       -0.0420
     19  C          5.5480  -33.1380   23.1690 C.2     1  UNL1        0.0070
     20  C          5.5310  -33.0530   24.5620 C.2     1  UNL1        0.0040
     21  C          6.3710  -32.3990   20.9130 C.3     1  UNL1        0.0480
     22  C          6.3320  -32.0100   26.7450 C.3     1  UNL1        0.0130
     23  C          5.5790  -33.1760   27.3920 C.3     1  UNL1        0.0120
     24  C          7.7530  -31.9000   27.3030 C.3     1  UNL1        0.0120
@<TRIPOS>BOND
     1    21    17    1
     2     6     5    1
     3     6     2    1
     4     5     3    2
     5     1     2    1
     6     1    14    1
     7     2     4    2
     8    14    15    1
     9    11     9    1
    10    11     7    2
    11     3     4    1
    12     3     7    1
    13    17    15    2
    14    17    19    1
    15     9     8    2
    16     7    12    1
    17     8    13    1
    18     8    10    1
    19    12    10    2
    20    15    16    1
    21    19    20    2
    22    16    18    2
    23    20    18    1
    24    18    22    1
    25    22    24    1
    26    22    23    1
