@<TRIPOS>MOLECULE
/localscratch/kbui/NexusMol/examples/_artifacts/vina_mpro/7K40_aspirin_prepared_scored.pdbqt
 14 14 0 0 0
SMALL
GASTEIGER

@<TRIPOS>ATOM
      1  C         11.8460  -25.2860   23.9680 C.2     1  UNL1        0.1450
      2  C         12.0940  -26.5110   24.5970 C.2     1  UNL1        0.0480
      3  C         13.2450  -27.2290   24.2800 C.2     1  UNL1        0.0040
      4  C         14.1350  -26.7320   23.3280 C.2     1  UNL1        0.0010
      5  C         13.8750  -25.5160   22.6870 C.2     1  UNL1        0.0190
      6  C         12.7210  -24.7800   22.9950 C.2     1  UNL1        0.1020
      7  O         10.6600  -24.6310   24.3110 O.3     1  UNL1       -0.4260
      8  C          9.5320  -25.2650   23.8000 C.2     1  UNL1        0.3080
      9  O          9.3180  -25.5430   22.6280 O.2     1  UNL1       -0.2520
     10  C          8.5800  -25.5410   24.9250 C.3     1  UNL1        0.1390
     11  C         12.4230  -23.5020   22.2970 C.2     1  UNL1        0.3390
     12  O         12.9840  -22.4330   22.4500 O.2     1  UNL1       -0.2460
     13  O         11.4070  -23.6180   21.4190 O.3     1  UNL1       -0.4780
     14  H         11.8550  -23.7990   20.5670 H       1  UNL1        0.2970
@<TRIPOS>BOND
     1    14    13    1
     2    13    11    1
     3    11    12    2
     4    11     6    1
     5     9     8    2
     6     5     6    1
     7     5     4    2
     8     6     1    2
     9     4     3    1
    10     8     7    1
    11     8    10    1
    12     1     7    1
    13     1     2    1
    14     3     2    2
