@<TRIPOS>MOLECULE
/localscratch/kbui/NexusMol/examples/_artifacts/vina_mpro/7K40_aspirin_prepared_scored.pdbqt
 14 14 0 0 0
SMALL
GASTEIGER

@<TRIPOS>ATOM
      1  C         12.0950  -26.2190   23.1000 C.2     1  UNL1        0.1450
      2  C         12.9560  -25.1480   23.3610 C.2     1  UNL1        0.0480
      3  C         12.6700  -23.8890   22.8350 C.2     1  UNL1        0.0040
      4  C         11.5370  -23.7070   22.0420 C.2     1  UNL1        0.0010
      5  C         10.6880  -24.7850   21.7680 C.2     1  UNL1        0.0190
      6  C         10.9620  -26.0590   22.2890 C.2     1  UNL1        0.1020
      7  O         12.4550  -27.4600   23.6330 O.3     1  UNL1       -0.4260
      8  C         13.6380  -27.9520   23.0910 C.2     1  UNL1        0.3080
      9  O         13.8680  -28.1610   21.9080 O.2     1  UNL1       -0.2520
     10  C         14.6070  -28.2180   24.2040 C.3     1  UNL1        0.1390
     11  C         10.0810  -27.2150   21.9780 C.2     1  UNL1        0.3390
     12  O          8.8850  -27.3050   22.1850 O.2     1  UNL1       -0.2460
     13  O         10.7510  -28.2370   21.4110 O.3     1  UNL1       -0.4780
     14  H         11.3820  -28.5170   22.1070 H       1  UNL1        0.2970
@<TRIPOS>BOND
     1    13    11    1
     2    13    14    1
     3     5     4    2
     4     5     6    1
     5     9     8    2
     6    11    12    2
     7    11     6    1
     8     4     3    1
     9     6     1    2
    10     3     2    2
    11     8     7    1
    12     8    10    1
    13     1     2    1
    14     1     7    1
