@<TRIPOS>MOLECULE
/localscratch/kbui/NexusMol/examples/_artifacts/vina_mpro/7K40_aspirin_prepared_scored.pdbqt
 14 14 0 0 0
SMALL
GASTEIGER

@<TRIPOS>ATOM
      1  C          6.5270  -31.6450   24.1450 C.2     1  UNL1        0.1450
      2  C          7.6960  -31.1250   23.5780 C.2     1  UNL1        0.0480
      3  C          8.1170  -31.5750   22.3280 C.2     1  UNL1        0.0040
      4  C          7.3800  -32.5490   21.6550 C.2     1  UNL1        0.0010
      5  C          6.2220  -33.0810   22.2320 C.2     1  UNL1        0.0190
      6  C          5.7850  -32.6390   23.4900 C.2     1  UNL1        0.1020
      7  O          6.1780  -31.1720   25.4120 O.3     1  UNL1       -0.4260
      8  C          6.9860  -31.6900   26.4180 C.2     1  UNL1        0.3080
      9  O          7.1790  -32.8730   26.6640 O.2     1  UNL1       -0.2520
     10  C          7.5840  -30.5530   27.1930 C.3     1  UNL1        0.1390
     11  C          4.5710  -33.2200   24.1230 C.2     1  UNL1        0.3390
     12  O          4.3840  -34.3850   24.4200 O.2     1  UNL1       -0.2460
     13  O          3.6190  -32.2960   24.3580 O.3     1  UNL1       -0.4780
     14  H          3.5410  -31.8200   23.5060 H       1  UNL1        0.2970
@<TRIPOS>BOND
     1     4     5    2
     2     4     3    1
     3     5     6    1
     4     3     2    2
     5     6    11    1
     6     6     1    2
     7    14    13    1
     8     2     1    1
     9    11    13    1
    10    11    12    2
    11     1     7    1
    12     7     8    1
    13     8     9    2
    14     8    10    1
