@<TRIPOS>MOLECULE
/localscratch/kbui/NexusMol/examples/_artifacts/vina_mpro/7K40_mol3_prepared_scored.pdbqt
 23 25 0 0 0
SMALL
GASTEIGER

@<TRIPOS>ATOM
      1  O          9.5580  -26.0660   24.2300 O.2     1  UNL1       -0.4850
      2  C         10.8200  -25.6820   23.8520 C.2     1  UNL1        0.1230
      3  C         11.0490  -24.2960   23.8180 C.2     1  UNL1       -0.0090
      4  C         12.3170  -23.8190   23.4600 C.2     1  UNL1        0.0070
      5  C         13.3480  -24.7060   23.1490 C.2     1  UNL1        0.0040
      6  C         11.8640  -26.5640   23.5510 C.2     1  UNL1        0.0500
      7  C         13.1380  -26.0880   23.1940 C.2     1  UNL1       -0.0420
      8  C          9.9540  -23.3240   24.1560 C.3     1  UNL1        0.0480
      9  C         14.2800  -27.0370   22.8710 C.3     1  UNL1        0.0130
     10  C         14.4900  -28.0630   23.9890 C.3     1  UNL1        0.0120
     11  C         14.0720  -27.7310   21.5240 C.3     1  UNL1        0.0120
     12  C          9.4150  -26.8480   25.4200 C.3     1  UNL1        0.3070
     13  C          8.7340  -28.1190   25.0890 C.2     1  UNL1        0.1740
     14  C          8.5850  -28.8770   23.9540 C.2     1  UNL1        0.0810
     15  O          8.0780  -28.7270   26.1100 O.2     1  UNL1       -0.3570
     16  C          7.7840  -29.9830   24.3460 C.2     1  UNL1        0.1140
     17  N          7.4870  -29.8850   25.6540 N.2     1  UNL1       -0.0790
     18  C          7.3080  -31.1020   23.5260 C.2     1  UNL1        0.0040
     19  C          7.8910  -31.3710   22.2760 C.2     1  UNL1        0.0100
     20  C          6.2660  -31.9320   23.9660 C.2     1  UNL1        0.0100
     21  C          7.4420  -32.4360   21.4890 C.2     1  UNL1        0.0010
     22  C          5.8170  -32.9970   23.1780 C.2     1  UNL1        0.0010
     23  C          6.4040  -33.2470   21.9400 C.2     1  UNL1        0.0000
@<TRIPOS>BOND
     1    21    23    2
     2    21    19    1
     3    11     9    1
     4    23    22    1
     5    19    18    2
     6     9     7    1
     7     9    10    1
     8     5     7    2
     9     5     4    1
    10    22    20    2
    11     7     6    1
    12     4     3    2
    13    18    20    1
    14    18    16    1
    15     6     2    2
    16     3     2    1
    17     3     8    1
    18     2     1    1
    19    14    16    1
    20    14    13    2
    21     1    12    1
    22    16    17    2
    23    13    12    1
    24    13    15    1
    25    17    15    1
