@<TRIPOS>MOLECULE
/localscratch/kbui/NexusMol/examples/_artifacts/vina_mpro/7K40_mol2_prepared_scored.pdbqt
 14 14 0 0 0
SMALL
GASTEIGER

@<TRIPOS>ATOM
      1  C         12.4230  -24.3210   22.9580 C.2     1  UNL1        0.1230
      2  C         13.1590  -23.1330   22.8760 C.2     1  UNL1        0.0500
      3  C         12.6420  -21.9210   23.3670 C.2     1  UNL1       -0.0420
      4  C         11.3660  -21.9210   23.9440 C.2     1  UNL1        0.0040
      5  C         10.6260  -23.1000   24.0300 C.2     1  UNL1        0.0070
      6  C         11.1440  -24.3060   23.5400 C.2     1  UNL1       -0.0090
      7  C         10.3290  -25.5660   23.6430 C.3     1  UNL1        0.0480
      8  O         12.8490  -25.5450   22.5060 O.2     1  UNL1       -0.4810
      9  C         14.1800  -25.9410   22.8230 C.3     1  UNL1        0.3180
     10  C         14.1950  -27.3870   23.0910 C.1     1  UNL1       -0.0650
     11  C         14.2070  -28.5690   23.3110 C.1     1  UNL1        0.0070
     12  C         13.4670  -20.6500   23.2620 C.3     1  UNL1        0.0130
     13  C         14.7380  -20.8700   22.4380 C.3     1  UNL1        0.0120
     14  C         13.8030  -20.0810   24.6420 C.3     1  UNL1        0.0120
@<TRIPOS>BOND
     1    13    12    1
     2     8     9    1
     3     8     1    1
     4     9    10    1
     5     2     1    2
     6     2     3    1
     7     1     6    1
     8    10    11    3
     9    12     3    1
    10    12    14    1
    11     3     4    2
    12     6     7    1
    13     6     5    2
    14     4     5    1
