@<TRIPOS>MOLECULE
/localscratch/kbui/NexusMol/examples/_artifacts/vina_mpro/7K40_mol2_prepared_scored.pdbqt
 14 14 0 0 0
SMALL
GASTEIGER

@<TRIPOS>ATOM
      1  C          9.1020  -28.1720   21.6750 C.2     1  UNL1        0.1230
      2  C          8.0400  -27.5650   20.9940 C.2     1  UNL1        0.0500
      3  C          8.0980  -26.2120   20.6130 C.2     1  UNL1       -0.0420
      4  C          9.2450  -25.4740   20.9300 C.2     1  UNL1        0.0040
      5  C         10.3080  -26.0710   21.6090 C.2     1  UNL1        0.0070
      6  C         10.2480  -27.4190   21.9860 C.2     1  UNL1       -0.0090
      7  C         11.4050  -28.0430   22.7160 C.3     1  UNL1        0.0480
      8  O          9.1310  -29.4810   22.0830 O.2     1  UNL1       -0.4810
      9  C          7.9300  -30.0370   22.6120 C.3     1  UNL1        0.3180
     10  C          7.7490  -31.3890   22.0640 C.1     1  UNL1       -0.0650
     11  C          7.6020  -32.4940   21.6160 C.1     1  UNL1        0.0070
     12  C          6.9280  -25.5840   19.8760 C.3     1  UNL1        0.0130
     13  C          5.6090  -26.2850   20.2120 C.3     1  UNL1        0.0120
     14  C          7.1620  -25.5590   18.3640 C.3     1  UNL1        0.0120
@<TRIPOS>BOND
     1    14    12    1
     2    12    13    1
     3    12     3    1
     4     3     4    2
     5     3     2    1
     6     4     5    1
     7     2     1    2
     8     5     6    2
     9    11    10    3
    10     1     6    1
    11     1     8    1
    12     6     7    1
    13    10     9    1
    14     8     9    1
