@<TRIPOS>MOLECULE
/localscratch/kbui/NexusMol/examples/_artifacts/vina_mpro/7K40_mol4_prepared_scored.pdbqt
 24 26 0 0 0
SMALL
GASTEIGER

@<TRIPOS>ATOM
      1  C          9.1250  -27.9850   21.1770 C.3     1  UNL1        0.3070
      2  C          9.6580  -26.6230   21.4140 C.2     1  UNL1        0.1740
      3  C         10.6000  -24.6850   21.9520 C.2     1  UNL1        0.1140
      4  C         10.5750  -26.0690   22.2740 C.2     1  UNL1        0.0810
      5  N          9.7390  -24.4390   20.9470 N.2     1  UNL1       -0.0790
      6  O          9.1580  -25.6450   20.6190 O.2     1  UNL1       -0.3570
      7  C         11.4040  -23.6170   22.5590 C.2     1  UNL1        0.0040
      8  C         12.9410  -21.5440   23.7220 C.2     1  UNL1       -0.0510
      9  C         11.5480  -21.4470   23.6630 C.2     1  UNL1        0.0040
     10  C         13.5600  -22.6900   23.2170 C.2     1  UNL1        0.0040
     11  C         10.7900  -22.4700   23.0830 C.2     1  UNL1        0.0110
     12  C         12.8010  -23.7140   22.6360 C.2     1  UNL1        0.0110
     13  C         13.7520  -20.4640   24.3730 C.3     1  UNL1        0.0440
     14  O          9.5630  -28.8070   22.2570 O.2     1  UNL1       -0.4850
     15  C          8.6260  -29.5910   22.8790 C.2     1  UNL1        0.1230
     16  C          8.0140  -30.7150   22.3100 C.2     1  UNL1        0.0500
     17  C          8.2850  -29.2010   24.1840 C.2     1  UNL1       -0.0090
     18  C          7.0620  -31.4630   23.0230 C.2     1  UNL1       -0.0420
     19  C          7.3350  -29.9440   24.8980 C.2     1  UNL1        0.0070
     20  C          6.7310  -31.0630   24.3230 C.2     1  UNL1        0.0040
     21  C          8.9240  -28.0000   24.8240 C.3     1  UNL1        0.0480
     22  C          6.4160  -32.6770   22.3760 C.3     1  UNL1        0.0130
     23  C          5.0570  -32.9940   23.0070 C.3     1  UNL1        0.0120
     24  C          6.2880  -32.5080   20.8610 C.3     1  UNL1        0.0120
@<TRIPOS>BOND
     1     6     5    1
     2     6     2    1
     3    24    22    1
     4     5     3    2
     5     1     2    1
     6     1    14    1
     7     2     4    2
     8     3     4    1
     9     3     7    1
    10    14    15    1
    11    16    15    2
    12    16    18    1
    13    22    23    1
    14    22    18    1
    15     7    12    2
    16     7    11    1
    17    12    10    1
    18    15    17    1
    19    18    20    2
    20    11     9    2
    21    10     8    2
    22     9     8    1
    23     8    13    1
    24    17    21    1
    25    17    19    2
    26    20    19    1
