@<TRIPOS>MOLECULE
/localscratch/kbui/NexusMol/examples/_artifacts/vina_mpro/7K40_mol1_prepared_scored.pdbqt
 12 12 0 0 0
SMALL
GASTEIGER

@<TRIPOS>ATOM
      1  C         10.1940  -22.6090   23.7890 C.3     1  UNL1        0.0480
      2  C         11.2610  -23.6530   23.6250 C.2     1  UNL1       -0.0090
      3  C         11.0230  -24.9580   24.0800 C.2     1  UNL1        0.0070
      4  C         11.9950  -25.9550   23.9430 C.2     1  UNL1        0.0040
      5  C         13.2310  -25.6750   23.3470 C.2     1  UNL1       -0.0420
      6  C         13.4680  -24.3710   22.8920 C.2     1  UNL1        0.0500
      7  C         12.4960  -23.3790   23.0300 C.2     1  UNL1        0.1180
      8  O         12.8310  -22.1430   22.5530 O.2     1  UNL1       -0.5080
      9  H         13.7130  -21.9040   22.8760 H       1  UNL1        0.2930
     10  C         14.2710  -26.7700   23.2080 C.3     1  UNL1        0.0130
     11  C         14.3210  -27.6580   24.4540 C.3     1  UNL1        0.0120
     12  C         14.0410  -27.6100   21.9490 C.3     1  UNL1        0.0120
@<TRIPOS>BOND
     1    12    10    1
     2     8     9    1
     3     8     7    1
     4     6     7    1
     5     6     5    2
     6     7     2    2
     7    10     5    1
     8    10    11    1
     9     5     4    1
    10     2     1    1
    11     2     3    1
    12     4     3    2
