@<TRIPOS>MOLECULE
/localscratch/kbui/NexusMol/examples/_artifacts/vina_mpro/7K40_mol2_prepared_scored.pdbqt
 14 14 0 0 0
SMALL
GASTEIGER

@<TRIPOS>ATOM
      1  C         12.5230  -26.3050   24.2550 C.2     1  UNL1        0.1230
      2  C         11.4530  -27.0820   24.7160 C.2     1  UNL1        0.0500
      3  C         10.1210  -26.6690   24.5350 C.2     1  UNL1       -0.0420
      4  C          9.8790  -25.4540   23.8820 C.2     1  UNL1        0.0040
      5  C         10.9380  -24.6730   23.4200 C.2     1  UNL1        0.0070
      6  C         12.2640  -25.0880   23.6010 C.2     1  UNL1       -0.0090
      7  C         13.3910  -24.2310   23.0940 C.3     1  UNL1        0.0480
      8  O         13.8480  -26.6310   24.3880 O.2     1  UNL1       -0.4810
      9  C         14.2660  -27.9100   23.9200 C.3     1  UNL1        0.3180
     10  C         14.2250  -27.9150   22.4500 C.1     1  UNL1       -0.0650
     11  C         14.1920  -27.9200   21.2490 C.1     1  UNL1        0.0070
     12  C          8.9840  -27.5360   25.0480 C.3     1  UNL1        0.0130
     13  C          7.6210  -26.9920   24.6110 C.3     1  UNL1        0.0120
     14  C          9.0430  -27.7020   26.5680 C.3     1  UNL1        0.0120
@<TRIPOS>BOND
     1    11    10    3
     2    10     9    1
     3     7     6    1
     4     5     6    1
     5     5     4    2
     6     6     1    2
     7     4     3    1
     8     9     8    1
     9     1     8    1
    10     1     2    1
    11     3     2    2
    12     3    12    1
    13    13    12    1
    14    12    14    1
