@<TRIPOS>MOLECULE
/localscratch/kbui/NexusMol/examples/_artifacts/vina_mpro/7K40_aspirin_prepared_scored.pdbqt
 14 14 0 0 0
SMALL
GASTEIGER

@<TRIPOS>ATOM
      1  C          6.0950  -26.0050   20.2650 C.2     1  UNL1        0.1450
      2  C          6.4580  -26.1240   21.6110 C.2     1  UNL1        0.0480
      3  C          7.8020  -26.2570   21.9540 C.2     1  UNL1        0.0040
      4  C          8.7760  -26.2840   20.9550 C.2     1  UNL1        0.0010
      5  C          8.4080  -26.1840   19.6090 C.2     1  UNL1        0.0190
      6  C          7.0590  -26.0500   19.2470 C.2     1  UNL1        0.1020
      7  O          4.7290  -25.9040   19.9880 O.3     1  UNL1       -0.4260
      8  C          4.2430  -24.6120   20.1590 C.2     1  UNL1        0.3080
      9  O          4.6410  -23.6010   19.5950 O.2     1  UNL1       -0.2520
     10  C          3.1480  -24.6370   21.1830 C.3     1  UNL1        0.1390
     11  C          6.6570  -25.9720   17.8170 C.2     1  UNL1        0.3390
     12  O          6.9560  -25.1060   17.0160 O.2     1  UNL1       -0.2460
     13  O          5.8760  -27.0040   17.4440 O.3     1  UNL1       -0.4780
     14  H          6.5110  -27.7370   17.3010 H       1  UNL1        0.2970
@<TRIPOS>BOND
     1    12    11    2
     2    14    13    1
     3    13    11    1
     4    11     6    1
     5     6     5    1
     6     6     1    2
     7     9     8    2
     8     5     4    2
     9     7     8    1
    10     7     1    1
    11     8    10    1
    12     1     2    1
    13     4     3    1
    14     2     3    2
