@<TRIPOS>MOLECULE
/localscratch/kbui/NexusMol/examples/_artifacts/vina_mpro/7K40_mol3_prepared_scored.pdbqt
 23 25 0 0 0
SMALL
GASTEIGER

@<TRIPOS>ATOM
      1  O          7.7620  -30.8030   22.5230 O.2     1  UNL1       -0.4850
      2  C          7.0090  -31.5460   23.3960 C.2     1  UNL1        0.1230
      3  C          6.1530  -32.4920   22.8080 C.2     1  UNL1       -0.0090
      4  C          5.3610  -33.3050   23.6300 C.2     1  UNL1        0.0070
      5  C          5.4260  -33.1890   25.0190 C.2     1  UNL1        0.0040
      6  C          7.0770  -31.4460   24.7900 C.2     1  UNL1        0.0500
      7  C          6.2870  -32.2630   25.6180 C.2     1  UNL1       -0.0420
      8  C          6.0720  -32.6380   21.3140 C.3     1  UNL1        0.0480
      9  C          6.3570  -32.1660   27.1320 C.3     1  UNL1        0.0130
     10  C          5.6030  -33.3180   27.8030 C.3     1  UNL1        0.0120
     11  C          7.8030  -32.0980   27.6270 C.3     1  UNL1        0.0120
     12  C          7.3500  -29.4620   22.2430 C.3     1  UNL1        0.3070
     13  C          8.5470  -28.6100   22.0680 C.2     1  UNL1        0.1740
     14  C          9.8100  -28.5830   22.6070 C.2     1  UNL1        0.0810
     15  O          8.4290  -27.5910   21.1800 O.2     1  UNL1       -0.3570
     16  C         10.4520  -27.4730   21.9970 C.2     1  UNL1        0.1140
     17  N          9.6090  -26.8820   21.1310 N.2     1  UNL1       -0.0790
     18  C         11.8140  -26.9740   22.2130 C.2     1  UNL1        0.0040
     19  C         12.0310  -25.6660   22.6790 C.2     1  UNL1        0.0100
     20  C         12.9320  -27.7840   21.9640 C.2     1  UNL1        0.0100
     21  C         13.3260  -25.1830   22.8860 C.2     1  UNL1        0.0010
     22  C         14.2280  -27.3000   22.1710 C.2     1  UNL1        0.0010
     23  C         14.4240  -26.0000   22.6310 C.2     1  UNL1        0.0000
@<TRIPOS>BOND
     1    17    15    1
     2    17    16    2
     3    15    13    1
     4     8     3    1
     5    20    22    1
     6    20    18    2
     7    16    18    1
     8    16    14    1
     9    13    12    1
    10    13    14    2
    11    22    23    2
    12    18    19    1
    13    12     1    1
    14     1     2    1
    15    23    21    1
    16    19    21    2
    17     3     2    2
    18     3     4    1
    19     2     6    1
    20     4     5    2
    21     6     7    2
    22     5     7    1
    23     7     9    1
    24     9    11    1
    25     9    10    1
