@<TRIPOS>MOLECULE
/localscratch/kbui/NexusMol/examples/_artifacts/vina_mpro/7K40_mol3_prepared_scored.pdbqt
 23 25 0 0 0
SMALL
GASTEIGER

@<TRIPOS>ATOM
      1  O          8.5780  -26.2060   19.8460 O.2     1  UNL1       -0.4850
      2  C          7.5290  -25.3280   19.9480 C.2     1  UNL1        0.1230
      3  C          6.4020  -25.6330   19.1660 C.2     1  UNL1       -0.0090
      4  C          5.2790  -24.7970   19.2250 C.2     1  UNL1        0.0070
      5  C          5.2700  -23.6780   20.0580 C.2     1  UNL1        0.0040
      6  C          7.5050  -24.2110   20.7900 C.2     1  UNL1        0.0500
      7  C          6.3790  -23.3720   20.8540 C.2     1  UNL1       -0.0420
      8  C          6.3890  -26.8380   18.2670 C.3     1  UNL1        0.0480
      9  C          6.3400  -22.1600   21.7680 C.3     1  UNL1        0.0130
     10  C          7.5990  -21.3010   21.6150 C.3     1  UNL1        0.0120
     11  C          5.0780  -21.3240   21.5450 C.3     1  UNL1        0.0120
     12  C          9.3440  -26.4870   21.0210 C.3     1  UNL1        0.3070
     13  C          8.9480  -27.8070   21.5580 C.2     1  UNL1        0.1740
     14  C          7.7820  -28.5320   21.5980 C.2     1  UNL1        0.0810
     15  O          9.9260  -28.5190   22.1730 O.2     1  UNL1       -0.3570
     16  C          8.1090  -29.7280   22.2900 C.2     1  UNL1        0.1140
     17  N          9.4110  -29.7130   22.6290 N.2     1  UNL1       -0.0790
     18  C          7.2360  -30.8580   22.6260 C.2     1  UNL1        0.0040
     19  C          6.9430  -31.1600   23.9670 C.2     1  UNL1        0.0100
     20  C          6.6700  -31.6610   21.6250 C.2     1  UNL1        0.0100
     21  C          6.1130  -32.2350   24.2950 C.2     1  UNL1        0.0010
     22  C          5.8400  -32.7370   21.9540 C.2     1  UNL1        0.0010
     23  C          5.5620  -33.0240   23.2890 C.2     1  UNL1        0.0000
@<TRIPOS>BOND
     1     8     3    1
     2     3     4    1
     3     3     2    2
     4     4     5    2
     5     1     2    1
     6     1    12    1
     7     2     6    1
     8     5     7    1
     9     6     7    2
    10     7     9    1
    11    12    13    1
    12    11     9    1
    13    13    14    2
    14    13    15    1
    15    14    16    1
    16    10     9    1
    17    20    22    1
    18    20    18    2
    19    22    23    2
    20    15    17    1
    21    16    18    1
    22    16    17    2
    23    18    19    1
    24    23    21    1
    25    19    21    2
