@<TRIPOS>MOLECULE
/localscratch/kbui/NexusMol/examples/_artifacts/vina_mpro/7K40_mol2_prepared_scored.pdbqt
 14 14 0 0 0
SMALL
GASTEIGER

@<TRIPOS>ATOM
      1  C         11.0790  -25.4710   21.9490 C.2     1  UNL1        0.1230
      2  C         11.3000  -24.0920   22.0380 C.2     1  UNL1        0.0500
      3  C         12.4710  -23.5780   22.6240 C.2     1  UNL1       -0.0420
      4  C         13.4210  -24.4780   23.1230 C.2     1  UNL1        0.0040
      5  C         13.2090  -25.8540   23.0390 C.2     1  UNL1        0.0070
      6  C         12.0410  -26.3620   22.4540 C.2     1  UNL1       -0.0090
      7  C         11.8340  -27.8490   22.3720 C.3     1  UNL1        0.0480
      8  O          9.9690  -26.0570   21.3960 O.2     1  UNL1       -0.4810
      9  C          8.8590  -25.2170   21.0900 C.3     1  UNL1        0.3180
     10  C          8.2890  -25.6320   19.8000 C.1     1  UNL1       -0.0650
     11  C          7.8220  -25.9710   18.7460 C.1     1  UNL1        0.0070
     12  C         12.6790  -22.0760   22.7060 C.3     1  UNL1        0.0130
     13  C         14.1160  -21.7280   23.1050 C.3     1  UNL1        0.0120
     14  C         11.6750  -21.4190   23.6560 C.3     1  UNL1        0.0120
@<TRIPOS>BOND
     1    11    10    3
     2    10     9    1
     3     9     8    1
     4     8     1    1
     5     1     2    2
     6     1     6    1
     7     2     3    1
     8     7     6    1
     9     6     5    2
    10     3    12    1
    11     3     4    2
    12    12    13    1
    13    12    14    1
    14     5     4    1
