@<TRIPOS>MOLECULE
/localscratch/kbui/NexusMol/examples/_artifacts/vina_mpro/7K40_mol2_prepared_scored.pdbqt
 14 14 0 0 0
SMALL
GASTEIGER

@<TRIPOS>ATOM
      1  C         12.7490  -23.3310   23.0180 C.2     1  UNL1        0.1230
      2  C         13.6240  -24.4100   22.8430 C.2     1  UNL1        0.0500
      3  C         13.2830  -25.7030   23.2800 C.2     1  UNL1       -0.0420
      4  C         12.0410  -25.8950   23.8980 C.2     1  UNL1        0.0040
      5  C         11.1640  -24.8270   24.0760 C.2     1  UNL1        0.0070
      6  C         11.5070  -23.5400   23.6400 C.2     1  UNL1       -0.0090
      7  C         10.5440  -22.4020   23.8410 C.3     1  UNL1        0.0480
      8  O         13.0000  -22.0410   22.6240 O.2     1  UNL1       -0.4810
      9  C         14.1680  -21.4070   23.1400 C.3     1  UNL1        0.3180
     10  C         13.7960  -20.6120   24.3190 C.1     1  UNL1       -0.0650
     11  C         13.4910  -19.9620   25.2840 C.1     1  UNL1        0.0070
     12  C         14.2560  -26.8510   23.0760 C.3     1  UNL1        0.0130
     13  C         13.8590  -27.7190   21.8780 C.3     1  UNL1        0.0120
     14  C         14.3980  -27.7000   24.3410 C.3     1  UNL1        0.0120
@<TRIPOS>BOND
     1    13    12    1
     2     8     1    1
     3     8     9    1
     4     2     1    2
     5     2     3    1
     6     1     6    1
     7    12     3    1
     8    12    14    1
     9     9    10    1
    10     3     4    2
    11     6     7    1
    12     6     5    2
    13     4     5    1
    14    10    11    3
