@<TRIPOS>MOLECULE
/localscratch/kbui/NexusMol/examples/_artifacts/vina_mpro/7K40_aspirin_prepared_scored.pdbqt
 14 14 0 0 0
SMALL
GASTEIGER

@<TRIPOS>ATOM
      1  C         11.8030  -25.8560   22.7610 C.2     1  UNL1        0.1450
      2  C         13.0040  -25.1940   23.0390 C.2     1  UNL1        0.0480
      3  C         14.2170  -25.8210   22.7620 C.2     1  UNL1        0.0040
      4  C         14.2290  -27.1070   22.2220 C.2     1  UNL1        0.0010
      5  C         13.0270  -27.7730   21.9620 C.2     1  UNL1        0.0190
      6  C         11.7960  -27.1570   22.2360 C.2     1  UNL1        0.1020
      7  O         10.6230  -25.1830   23.0900 O.3     1  UNL1       -0.4260
      8  C         10.3190  -24.1670   22.1900 C.2     1  UNL1        0.3080
      9  O         10.1530  -24.2850   20.9840 O.2     1  UNL1       -0.2520
     10  C         10.2470  -22.8670   22.9340 C.3     1  UNL1        0.1390
     11  C         10.5150  -27.8700   21.9900 C.2     1  UNL1        0.3390
     12  O         10.0800  -28.8300   22.5990 O.2     1  UNL1       -0.2460
     13  O          9.8170  -27.3400   20.9660 O.3     1  UNL1       -0.4780
     14  H          8.9700  -27.0690   21.3760 H       1  UNL1        0.2970
@<TRIPOS>BOND
     1    13    14    1
     2    13    11    1
     3     9     8    2
     4     5     4    2
     5     5     6    1
     6    11     6    1
     7    11    12    2
     8     8    10    1
     9     8     7    1
    10     4     3    1
    11     6     1    2
    12     1     2    1
    13     1     7    1
    14     3     2    2
