@<TRIPOS>MOLECULE
/localscratch/kbui/NexusMol/examples/_artifacts/vina_mpro/7K40_aspirin_prepared_scored.pdbqt
 14 14 0 0 0
SMALL
GASTEIGER

@<TRIPOS>ATOM
      1  C         11.8200  -26.2950   24.0760 C.2     1  UNL1        0.1450
      2  C         11.0580  -25.1370   23.8880 C.2     1  UNL1        0.0480
      3  C         11.6390  -24.0160   23.2980 C.2     1  UNL1        0.0040
      4  C         12.9790  -24.0500   22.9110 C.2     1  UNL1        0.0010
      5  C         13.7440  -25.2030   23.1170 C.2     1  UNL1        0.0190
      6  C         13.1740  -26.3400   23.7100 C.2     1  UNL1        0.1020
      7  O         11.1850  -27.3720   24.6990 O.3     1  UNL1       -0.4260
      8  C         10.3490  -28.0720   23.8360 C.2     1  UNL1        0.3080
      9  O         10.6600  -28.5690   22.7610 O.2     1  UNL1       -0.2520
     10  C          8.9680  -28.1080   24.4190 C.3     1  UNL1        0.1390
     11  C         13.9880  -27.5590   23.9590 C.2     1  UNL1        0.3390
     12  O         14.8750  -27.6940   24.7810 O.2     1  UNL1       -0.2460
     13  O         13.6510  -28.5790   23.1470 O.3     1  UNL1       -0.4780
     14  H         14.3440  -28.5640   22.4540 H       1  UNL1        0.2970
@<TRIPOS>BOND
     1    14    13    1
     2     9     8    2
     3     4     5    2
     4     4     3    1
     5     5     6    1
     6    13    11    1
     7     3     2    2
     8     6    11    1
     9     6     1    2
    10     8    10    1
    11     8     7    1
    12     2     1    1
    13    11    12    2
    14     1     7    1
