@<TRIPOS>MOLECULE
/localscratch/kbui/NexusMol/examples/_artifacts/vina_mpro/7K40_aspirin_prepared_scored.pdbqt
 14 14 0 0 0
SMALL
GASTEIGER

@<TRIPOS>ATOM
      1  C         12.4310  -25.7700   23.4010 C.2     1  UNL1        0.1450
      2  C         13.4270  -24.9370   22.8810 C.2     1  UNL1        0.0480
      3  C         13.2690  -23.5530   22.9390 C.2     1  UNL1        0.0040
      4  C         12.1160  -23.0080   23.5040 C.2     1  UNL1        0.0010
      5  C         11.1140  -23.8440   24.0070 C.2     1  UNL1        0.0190
      6  C         11.2570  -25.2390   23.9550 C.2     1  UNL1        0.1020
      7  O         12.6380  -27.1470   23.2840 O.3     1  UNL1       -0.4260
      8  C         13.7840  -27.5730   23.9470 C.2     1  UNL1        0.3080
      9  O         14.1970  -27.1710   25.0270 O.2     1  UNL1       -0.2520
     10  C         14.4730  -28.6090   23.1080 C.3     1  UNL1        0.1390
     11  C         10.1830  -26.1350   24.4610 C.2     1  UNL1        0.3390
     12  O          9.0230  -26.1690   24.0960 O.2     1  UNL1       -0.2460
     13  O         10.6180  -26.9660   25.4270 O.3     1  UNL1       -0.4780
     14  H         11.1660  -27.6190   24.9450 H       1  UNL1        0.2970
@<TRIPOS>BOND
     1     2     3    1
     2     2     1    2
     3     3     4    2
     4    10     8    1
     5     7     1    1
     6     7     8    1
     7     1     6    1
     8     4     5    1
     9     8     9    2
    10     6     5    2
    11     6    11    1
    12    12    11    2
    13    11    13    1
    14    14    13    1
