@<TRIPOS>MOLECULE
/localscratch/kbui/NexusMol/examples/_artifacts/vina_mpro/7K40_mol1_prepared_scored.pdbqt
 12 12 0 0 0
SMALL
GASTEIGER

@<TRIPOS>ATOM
      1  C         14.5170  -28.0730   24.2620 C.3     1  UNL1        0.0480
      2  C         13.5700  -26.9400   23.9920 C.2     1  UNL1       -0.0090
      3  C         12.3330  -26.9040   24.6510 C.2     1  UNL1        0.0070
      4  C         11.4270  -25.8640   24.4230 C.2     1  UNL1        0.0040
      5  C         11.7320  -24.8300   23.5280 C.2     1  UNL1       -0.0420
      6  C         12.9680  -24.8670   22.8690 C.2     1  UNL1        0.0500
      7  C         13.8700  -25.9060   23.0990 C.2     1  UNL1        0.1180
      8  O         15.0450  -25.8440   22.4040 O.2     1  UNL1       -0.5080
      9  H         15.7630  -26.1860   22.9590 H       1  UNL1        0.2930
     10  C         10.7340  -23.7110   23.2940 C.3     1  UNL1        0.0130
     11  C         11.3550  -22.3390   23.5680 C.3     1  UNL1        0.0120
     12  C         10.1430  -23.7700   21.8830 C.3     1  UNL1        0.0120
@<TRIPOS>BOND
     1    12    10    1
     2     8     9    1
     3     8     7    1
     4     6     7    1
     5     6     5    2
     6     7     2    2
     7    10     5    1
     8    10    11    1
     9     5     4    1
    10     2     1    1
    11     2     3    1
    12     4     3    2
