@<TRIPOS>MOLECULE
/localscratch/kbui/NexusMol/examples/_artifacts/vina_mpro/7K40_mol3_prepared_scored.pdbqt
 23 25 0 0 0
SMALL
GASTEIGER

@<TRIPOS>ATOM
      1  O          9.3360  -25.5930   22.4970 O.2     1  UNL1       -0.4850
      2  C         10.6490  -25.2180   22.6310 C.2     1  UNL1        0.1230
      3  C         10.8750  -23.8400   22.7810 C.2     1  UNL1       -0.0090
      4  C         12.1870  -23.3730   22.9410 C.2     1  UNL1        0.0070
      5  C         13.2600  -24.2650   22.9640 C.2     1  UNL1        0.0040
      6  C         11.7310  -26.1050   22.6670 C.2     1  UNL1        0.0500
      7  C         13.0470  -25.6410   22.8320 C.2     1  UNL1       -0.0420
      8  C          9.7330  -22.8630   22.7670 C.3     1  UNL1        0.0480
      9  C         14.2280  -26.5960   22.8780 C.3     1  UNL1        0.0130
     10  C         14.2400  -27.4090   24.1760 C.3     1  UNL1        0.0120
     11  C         14.2580  -27.5160   21.6570 C.3     1  UNL1        0.0120
     12  C          8.9530  -26.3140   21.3220 C.3     1  UNL1        0.3070
     13  C          8.6310  -27.7100   21.6890 C.2     1  UNL1        0.1740
     14  C          7.4740  -28.4230   21.8870 C.2     1  UNL1        0.0810
     15  O          9.6910  -28.5310   21.8980 O.2     1  UNL1       -0.3570
     16  C          7.8970  -29.7310   22.2430 C.2     1  UNL1        0.1140
     17  N          9.2410  -29.7880   22.2410 N.2     1  UNL1       -0.0790
     18  C          7.0750  -30.8990   22.5740 C.2     1  UNL1        0.0040
     19  C          6.7350  -31.1790   23.9090 C.2     1  UNL1        0.0100
     20  C          6.6050  -31.7640   21.5740 C.2     1  UNL1        0.0100
     21  C          5.9530  -32.2910   24.2330 C.2     1  UNL1        0.0010
     22  C          5.8220  -32.8760   21.8990 C.2     1  UNL1        0.0010
     23  C          5.4970  -33.1400   23.2280 C.2     1  UNL1        0.0000
@<TRIPOS>BOND
     1    12    13    1
     2    12     1    1
     3    20    22    1
     4    20    18    2
     5    11     9    1
     6    13    14    2
     7    13    15    1
     8    14    16    1
     9    15    17    1
    10    22    23    2
    11    17    16    2
    12    16    18    1
    13     1     2    1
    14    18    19    1
    15     2     6    2
    16     2     3    1
    17     6     7    1
    18     8     3    1
    19     3     4    2
    20     7     9    1
    21     7     5    2
    22     9    10    1
    23     4     5    1
    24    23    21    1
    25    19    21    2
