@<TRIPOS>MOLECULE
/localscratch/kbui/NexusMol/examples/_artifacts/vina_mpro/7K40_mol4_prepared_scored.pdbqt
 24 26 0 0 0
SMALL
GASTEIGER

@<TRIPOS>ATOM
      1  C          7.0500  -25.7610   19.2640 C.3     1  UNL1        0.3070
      2  C          8.2680  -25.7020   20.1070 C.2     1  UNL1        0.1740
      3  C         10.0880  -25.8670   21.3690 C.2     1  UNL1        0.1140
      4  C          9.0960  -26.6280   20.6910 C.2     1  UNL1        0.0810
      5  N          9.8510  -24.5550   21.1890 N.2     1  UNL1       -0.0790
      6  O          8.7210  -24.4590   20.4060 O.2     1  UNL1       -0.3570
      7  C         11.2260  -26.3450   22.1630 C.2     1  UNL1        0.0040
      8  C         13.4100  -27.2810   23.7010 C.2     1  UNL1       -0.0510
      9  C         12.5100  -28.1820   23.1250 C.2     1  UNL1        0.0040
     10  C         13.2260  -25.9130   23.4880 C.2     1  UNL1        0.0040
     11  C         11.4280  -27.7170   22.3690 C.2     1  UNL1        0.0110
     12  C         12.1430  -25.4490   22.7320 C.2     1  UNL1        0.0110
     13  C         14.5890  -27.7790   24.4830 C.3     1  UNL1        0.0440
     14  O          6.1090  -26.5950   19.9350 O.2     1  UNL1       -0.4850
     15  C          5.2380  -25.9960   20.8090 C.2     1  UNL1        0.1230
     16  C          4.2810  -25.0360   20.4560 C.2     1  UNL1        0.0500
     17  C          5.3500  -26.4050   22.1480 C.2     1  UNL1       -0.0090
     18  C          3.4270  -24.4730   21.4190 C.2     1  UNL1       -0.0420
     19  C          4.5000  -25.8460   23.1110 C.2     1  UNL1        0.0070
     20  C          3.5490  -24.8900   22.7500 C.2     1  UNL1        0.0040
     21  C          6.3660  -27.4340   22.5590 C.3     1  UNL1        0.0480
     22  C          2.3990  -23.4330   21.0040 C.3     1  UNL1        0.0130
     23  C          3.0590  -22.0940   20.6630 C.3     1  UNL1        0.0120
     24  C          1.5350  -23.9280   19.8420 C.3     1  UNL1        0.0120
@<TRIPOS>BOND
     1     1    14    1
     2     1     2    1
     3    24    22    1
     4    14    15    1
     5     2     6    1
     6     2     4    2
     7     6     5    1
     8    16    15    2
     9    16    18    1
    10    23    22    1
    11     4     3    1
    12    15    17    1
    13    22    18    1
    14     5     3    2
    15     3     7    1
    16    18    20    2
    17    17    21    1
    18    17    19    2
    19     7    11    2
    20     7    12    1
    21    11     9    1
    22    12    10    2
    23    20    19    1
    24     9     8    2
    25    10     8    1
    26     8    13    1
