@<TRIPOS>MOLECULE
/localscratch/kbui/NexusMol/examples/_artifacts/vina_mpro/7K40_mol4_prepared_scored.pdbqt
 24 26 0 0 0
SMALL
GASTEIGER

@<TRIPOS>ATOM
      1  C         11.1560  -23.0040   22.4740 C.3     1  UNL1        0.3070
      2  C          9.8790  -23.4520   21.8730 C.2     1  UNL1        0.1740
      3  C          7.8510  -23.9440   21.1110 C.2     1  UNL1        0.1140
      4  C          8.5620  -23.0770   21.9860 C.2     1  UNL1        0.0810
      5  N          8.7130  -24.7860   20.5110 N.2     1  UNL1       -0.0790
      6  O          9.9680  -24.4760   20.9880 O.2     1  UNL1       -0.3570
      7  C          6.4100  -23.9880   20.8370 C.2     1  UNL1        0.0040
      8  C          3.6270  -24.0590   20.3220 C.2     1  UNL1       -0.0510
      9  C          4.2800  -22.8410   20.5280 C.2     1  UNL1        0.0040
     10  C          4.3750  -25.2390   20.3520 C.2     1  UNL1        0.0040
     11  C          5.6540  -22.8080   20.7880 C.2     1  UNL1        0.0110
     12  C          5.7500  -25.2060   20.6130 C.2     1  UNL1        0.0110
     13  C          2.1610  -24.0930   20.0100 C.3     1  UNL1        0.0440
     14  O         11.2590  -23.6140   23.7590 O.2     1  UNL1       -0.4850
     15  C         11.5500  -24.9530   23.8040 C.2     1  UNL1        0.1230
     16  C         12.7320  -25.5340   23.3300 C.2     1  UNL1        0.0500
     17  C         10.5580  -25.7660   24.3780 C.2     1  UNL1       -0.0090
     18  C         12.9470  -26.9200   23.4170 C.2     1  UNL1       -0.0420
     19  C         10.7700  -27.1480   24.4670 C.2     1  UNL1        0.0070
     20  C         11.9510  -27.7190   23.9920 C.2     1  UNL1        0.0040
     21  C          9.2780  -25.1730   24.8980 C.3     1  UNL1        0.0480
     22  C         14.2420  -27.5200   22.8930 C.3     1  UNL1        0.0130
     23  C         14.5750  -28.8400   23.5930 C.3     1  UNL1        0.0120
     24  C         14.2030  -27.7020   21.3740 C.3     1  UNL1        0.0120
@<TRIPOS>BOND
     1    13     8    1
     2     8    10    2
     3     8     9    1
     4    10    12    1
     5     5     6    1
     6     5     3    2
     7     9    11    2
     8    12     7    2
     9    11     7    1
    10     7     3    1
    11     6     2    1
    12     3     4    1
    13    24    22    1
    14     2     4    2
    15     2     1    1
    16     1    14    1
    17    22    18    1
    18    22    23    1
    19    16    18    1
    20    16    15    2
    21    18    20    2
    22    14    15    1
    23    15    17    1
    24    20    19    1
    25    17    19    2
    26    17    21    1
