@<TRIPOS>MOLECULE
/localscratch/kbui/NexusMol/examples/_artifacts/vina_mpro/7K40_mol1_prepared_scored.pdbqt
 12 12 0 0 0
SMALL
GASTEIGER

@<TRIPOS>ATOM
      1  C         10.2880  -23.1480   24.1820 C.3     1  UNL1        0.0480
      2  C         11.3100  -24.2020   23.8690 C.2     1  UNL1       -0.0090
      3  C         12.4790  -23.8450   23.1820 C.2     1  UNL1        0.0070
      4  C         13.4530  -24.8010   22.8750 C.2     1  UNL1        0.0040
      5  C         13.2840  -26.1410   23.2450 C.2     1  UNL1       -0.0420
      6  C         12.1150  -26.4980   23.9310 C.2     1  UNL1        0.0500
      7  C         11.1460  -25.5410   24.2370 C.2     1  UNL1        0.1180
      8  O         10.0460  -25.9970   24.9070 O.2     1  UNL1       -0.5080
      9  H         10.0110  -25.5830   25.7830 H       1  UNL1        0.2930
     10  C         14.3510  -27.1630   22.9010 C.3     1  UNL1        0.0130
     11  C         14.4260  -28.2730   23.9520 C.3     1  UNL1        0.0120
     12  C         14.1400  -27.7490   21.5030 C.3     1  UNL1        0.0120
@<TRIPOS>BOND
     1    12    10    1
     2     4     3    1
     3     4     5    2
     4    10     5    1
     5    10    11    1
     6     3     2    2
     7     5     6    1
     8     2     1    1
     9     2     7    1
    10     6     7    2
    11     7     8    1
    12     8     9    1
