@<TRIPOS>MOLECULE
/localscratch/kbui/NexusMol/examples/_artifacts/vina_mpro/7K40_mol3_prepared_scored.pdbqt
 23 25 0 0 0
SMALL
GASTEIGER

@<TRIPOS>ATOM
      1  O         11.0300  -27.7860   23.5750 O.2     1  UNL1       -0.4850
      2  C         11.8720  -26.7260   23.3540 C.2     1  UNL1        0.1230
      3  C         13.2080  -27.0580   23.0730 C.2     1  UNL1       -0.0090
      4  C         14.1300  -26.0340   22.8170 C.2     1  UNL1        0.0070
      5  C         13.7300  -24.6970   22.8300 C.2     1  UNL1        0.0040
      6  C         11.4780  -25.3830   23.3520 C.2     1  UNL1        0.0500
      7  C         12.3990  -24.3540   23.0930 C.2     1  UNL1       -0.0420
      8  C         13.6590  -28.4910   23.0470 C.3     1  UNL1        0.0480
      9  C         11.9800  -22.8940   23.0820 C.3     1  UNL1        0.0130
     10  C         10.7930  -22.6440   24.0180 C.3     1  UNL1        0.0120
     11  C         13.1500  -21.9690   23.4250 C.3     1  UNL1        0.0120
     12  C          9.6260  -27.5300   23.6660 C.3     1  UNL1        0.3070
     13  C          8.8930  -28.8140   23.6390 C.2     1  UNL1        0.1740
     14  C          7.9160  -29.3940   24.4110 C.2     1  UNL1        0.0810
     15  O          9.2250  -29.6690   22.6390 O.2     1  UNL1       -0.3570
     16  C          7.6800  -30.6650   23.8230 C.2     1  UNL1        0.1140
     17  N          8.4740  -30.8200   22.7470 N.2     1  UNL1       -0.0790
     18  C          6.7420  -31.7090   24.2470 C.2     1  UNL1        0.0040
     19  C          6.6160  -32.0470   25.6060 C.2     1  UNL1        0.0100
     20  C          5.9460  -32.3930   23.3160 C.2     1  UNL1        0.0100
     21  C          5.7240  -33.0410   26.0180 C.2     1  UNL1        0.0010
     22  C          5.0540  -33.3880   23.7290 C.2     1  UNL1        0.0010
     23  C          4.9450  -33.7120   25.0800 C.2     1  UNL1        0.0000
@<TRIPOS>BOND
     1    15    17    1
     2    15    13    1
     3    17    16    2
     4     4     5    2
     5     4     3    1
     6     5     7    1
     7     8     3    1
     8     3     2    2
     9     9     7    1
    10     9    11    1
    11     9    10    1
    12     7     6    2
    13    20    22    1
    14    20    18    2
    15     6     2    1
    16     2     1    1
    17     1    12    1
    18    13    12    1
    19    13    14    2
    20    22    23    2
    21    16    18    1
    22    16    14    1
    23    18    19    1
    24    23    21    1
    25    19    21    2
