@<TRIPOS>MOLECULE
/localscratch/kbui/NexusMol/examples/_artifacts/vina_mpro/7K40_mol2_prepared_scored.pdbqt
 14 14 0 0 0
SMALL
GASTEIGER

@<TRIPOS>ATOM
      1  C         11.0060  -24.8110   23.9690 C.2     1  UNL1        0.1230
      2  C         11.5850  -26.0860   23.9420 C.2     1  UNL1        0.0500
      3  C         12.8950  -26.2800   23.4680 C.2     1  UNL1       -0.0420
      4  C         13.6180  -25.1680   23.0180 C.2     1  UNL1        0.0040
      5  C         13.0480  -23.8950   23.0410 C.2     1  UNL1        0.0070
      6  C         11.7430  -23.7050   23.5140 C.2     1  UNL1       -0.0090
      7  C         11.1500  -22.3230   23.5320 C.3     1  UNL1        0.0480
      8  O          9.7390  -24.5310   24.4130 O.2     1  UNL1       -0.4810
      9  C          8.6570  -25.2460   23.8230 C.3     1  UNL1        0.3180
     10  C          8.4680  -24.7710   22.4440 C.1     1  UNL1       -0.0650
     11  C          8.3140  -24.3830   21.3170 C.1     1  UNL1        0.0070
     12  C         13.4940  -27.6760   23.4510 C.3     1  UNL1        0.0130
     13  C         14.5610  -27.8440   24.5360 C.3     1  UNL1        0.0120
     14  C         14.0560  -28.0320   22.0730 C.3     1  UNL1        0.0120
@<TRIPOS>BOND
     1    11    10    3
     2    14    12    1
     3    10     9    1
     4     4     5    2
     5     4     3    1
     6     5     6    1
     7    12     3    1
     8    12    13    1
     9     3     2    2
    10     6     7    1
    11     6     1    2
    12     9     8    1
    13     2     1    1
    14     1     8    1
