@<TRIPOS>MOLECULE
/localscratch/kbui/NexusMol/examples/_artifacts/vina_mpro/7K40_mol2_prepared_scored.pdbqt
 14 14 0 0 0
SMALL
GASTEIGER

@<TRIPOS>ATOM
      1  C         10.6490  -25.4590   22.1580 C.2     1  UNL1        0.1230
      2  C         11.7360  -26.3200   22.3430 C.2     1  UNL1        0.0500
      3  C         13.0070  -25.8250   22.6890 C.2     1  UNL1       -0.0420
      4  C         13.1680  -24.4430   22.8450 C.2     1  UNL1        0.0040
      5  C         12.0900  -23.5770   22.6630 C.2     1  UNL1        0.0070
      6  C         10.8250  -24.0740   22.3180 C.2     1  UNL1       -0.0090
      7  C          9.6770  -23.1220   22.1270 C.3     1  UNL1        0.0480
      8  O          9.3790  -25.8540   21.8210 O.2     1  UNL1       -0.4810
      9  C          9.2430  -26.8950   20.8570 C.3     1  UNL1        0.3180
     10  C          8.4950  -26.3800   19.7020 C.1     1  UNL1       -0.0650
     11  C          7.8830  -25.9580   18.7570 C.1     1  UNL1        0.0070
     12  C         14.1660  -26.7870   22.8820 C.3     1  UNL1        0.0130
     13  C         14.1870  -27.8680   21.7980 C.3     1  UNL1        0.0120
     14  C         14.1510  -27.4150   24.2780 C.3     1  UNL1        0.0120
@<TRIPOS>BOND
     1    11    10    3
     2    10     9    1
     3     9     8    1
     4    13    12    1
     5     8     1    1
     6     7     6    1
     7     1     6    2
     8     1     2    1
     9     6     5    1
    10     2     3    2
    11     5     4    2
    12     3     4    1
    13     3    12    1
    14    12    14    1
