@<TRIPOS>MOLECULE
/localscratch/kbui/NexusMol/examples/_artifacts/vina_mpro/7K40_mol4_prepared_scored.pdbqt
 24 26 0 0 0
SMALL
GASTEIGER

@<TRIPOS>ATOM
      1  C          9.4460  -26.5240   20.8600 C.3     1  UNL1        0.3070
      2  C          9.0460  -27.7730   21.5490 C.2     1  UNL1        0.1740
      3  C          8.2110  -29.5980   22.5020 C.2     1  UNL1        0.1140
      4  C          7.8690  -28.4600   21.7220 C.2     1  UNL1        0.0810
      5  N          9.5290  -29.5800   22.7730 N.2     1  UNL1       -0.0790
      6  O         10.0410  -28.4460   22.1800 O.2     1  UNL1       -0.3570
      7  C          7.3390  -30.6760   22.9830 C.2     1  UNL1        0.0040
      8  C          5.6460  -32.7540   23.8930 C.2     1  UNL1       -0.0510
      9  C          6.1020  -32.7370   22.5720 C.2     1  UNL1        0.0040
     10  C          6.0570  -31.7400   24.7620 C.2     1  UNL1        0.0040
     11  C          6.9340  -31.7060   22.1220 C.2     1  UNL1        0.0110
     12  C          6.8890  -30.7090   24.3110 C.2     1  UNL1        0.0110
     13  C          4.7820  -33.8760   24.3850 C.3     1  UNL1        0.0440
     14  O          8.5630  -26.3480   19.7540 O.2     1  UNL1       -0.4850
     15  C          7.5310  -25.4570   19.9000 C.2     1  UNL1        0.1230
     16  C          7.5550  -24.3310   20.7330 C.2     1  UNL1        0.0500
     17  C          6.3830  -25.7330   19.1390 C.2     1  UNL1       -0.0090
     18  C          6.4490  -23.4690   20.8210 C.2     1  UNL1       -0.0420
     19  C          5.2790  -24.8750   19.2250 C.2     1  UNL1        0.0070
     20  C          5.3120  -23.7550   20.0570 C.2     1  UNL1        0.0040
     21  C          6.3260  -26.9340   18.2350 C.3     1  UNL1        0.0480
     22  C          6.5070  -22.2550   21.7340 C.3     1  UNL1        0.0130
     23  C          7.8130  -21.4760   21.5530 C.3     1  UNL1        0.0120
     24  C          5.2950  -21.3420   21.5360 C.3     1  UNL1        0.0120
@<TRIPOS>BOND
     1    21    17    1
     2    17    19    1
     3    17    15    2
     4    19    20    2
     5    14    15    1
     6    14     1    1
     7    15    16    1
     8    20    18    1
     9    16    18    2
    10    18    22    1
    11     1     2    1
    12    24    22    1
    13     2     4    2
    14     2     6    1
    15    23    22    1
    16     4     3    1
    17    11     9    1
    18    11     7    2
    19     6     5    1
    20     3     5    2
    21     3     7    1
    22     9     8    2
    23     7    12    1
    24     8    13    1
    25     8    10    1
    26    12    10    2
