@<TRIPOS>MOLECULE
/localscratch/kbui/NexusMol/examples/_artifacts/vina_mpro/7K40_mol4_prepared_scored.pdbqt
 24 26 0 0 0
SMALL
GASTEIGER

@<TRIPOS>ATOM
      1  C          9.1320  -26.6910   20.9630 C.3     1  UNL1        0.3070
      2  C          8.7460  -27.9660   21.6100 C.2     1  UNL1        0.1740
      3  C          7.9280  -29.7930   22.5730 C.2     1  UNL1        0.1140
      4  C          7.5660  -28.5310   22.0280 C.2     1  UNL1        0.0810
      5  N          9.2600  -29.9610   22.4770 N.2     1  UNL1       -0.0790
      6  O          9.7610  -28.8250   21.8800 O.2     1  UNL1       -0.3570
      7  C          7.0610  -30.8180   23.1660 C.2     1  UNL1        0.0040
      8  C          5.3990  -32.7940   24.3270 C.2     1  UNL1       -0.0510
      9  C          5.8290  -31.6970   25.0780 C.2     1  UNL1        0.0040
     10  C          5.7860  -32.8880   22.9880 C.2     1  UNL1        0.0040
     11  C          6.6540  -30.7240   24.5050 C.2     1  UNL1        0.0110
     12  C          6.6130  -31.9140   22.4140 C.2     1  UNL1        0.0110
     13  C          4.4870  -33.8190   24.9310 C.3     1  UNL1        0.0440
     14  O          9.3300  -25.7310   21.9990 O.2     1  UNL1       -0.4850
     15  C         10.6170  -25.3420   22.2670 C.2     1  UNL1        0.1230
     16  C         11.7050  -26.2120   22.4080 C.2     1  UNL1        0.0500
     17  C         10.8120  -23.9580   22.4030 C.2     1  UNL1       -0.0090
     18  C         12.9940  -25.7250   22.6830 C.2     1  UNL1       -0.0420
     19  C         12.0960  -23.4690   22.6780 C.2     1  UNL1        0.0070
     20  C         13.1750  -24.3430   22.8160 C.2     1  UNL1        0.0040
     21  C          9.6650  -22.9970   22.2570 C.3     1  UNL1        0.0480
     22  C         14.1550  -26.6950   22.8300 C.3     1  UNL1        0.0130
     23  C         14.1580  -27.3650   24.2070 C.3     1  UNL1        0.0120
     24  C         14.1580  -27.7420   21.7130 C.3     1  UNL1        0.0120
@<TRIPOS>BOND
     1     1     2    1
     2     1    14    1
     3     2     6    1
     4     2     4    2
     5    24    22    1
     6     6     5    1
     7    14    15    1
     8     4     3    1
     9    21    17    1
    10    15    17    2
    11    15    16    1
    12    17    19    1
    13    16    18    2
    14    12    10    1
    15    12     7    2
    16     5     3    2
    17     3     7    1
    18    19    20    2
    19    18    20    1
    20    18    22    1
    21    22    23    1
    22    10     8    2
    23     7    11    1
    24     8    13    1
    25     8     9    1
    26    11     9    2
