@<TRIPOS>MOLECULE
/localscratch/kbui/NexusMol/examples/_artifacts/vina_mpro/7K40_mol2_prepared_scored.pdbqt
 14 14 0 0 0
SMALL
GASTEIGER

@<TRIPOS>ATOM
      1  C         11.6870  -25.4010   22.6950 C.2     1  UNL1        0.1230
      2  C         10.9030  -26.3070   21.9690 C.2     1  UNL1        0.0500
      3  C          9.7680  -25.8800   21.2580 C.2     1  UNL1       -0.0420
      4  C          9.4290  -24.5210   21.2880 C.2     1  UNL1        0.0040
      5  C         10.2040  -23.6120   22.0090 C.2     1  UNL1        0.0070
      6  C         11.3350  -24.0410   22.7160 C.2     1  UNL1       -0.0090
      7  C         12.1560  -23.0440   23.4850 C.3     1  UNL1        0.0480
      8  O         12.8080  -25.7290   23.4150 O.2     1  UNL1       -0.4810
      9  C         13.9490  -26.1830   22.6930 C.3     1  UNL1        0.3180
     10  C         14.2110  -27.5860   23.0490 C.1     1  UNL1       -0.0650
     11  C         14.4250  -28.7320   23.3410 C.1     1  UNL1        0.0070
     12  C          8.9390  -26.8880   20.4810 C.3     1  UNL1        0.0130
     13  C          8.1700  -26.2220   19.3380 C.3     1  UNL1        0.0120
     14  C          7.9900  -27.6630   21.3990 C.3     1  UNL1        0.0120
@<TRIPOS>BOND
     1    13    12    1
     2    12     3    1
     3    12    14    1
     4     3     4    2
     5     3     2    1
     6     4     5    1
     7     2     1    2
     8     5     6    2
     9     9    10    1
    10     9     8    1
    11     1     6    1
    12     1     8    1
    13     6     7    1
    14    10    11    3
